123
title
 C         -2.75267291    0.66036201   -1.08014202
 C         -1.51504397   -1.47068405   -1.75399804
 C         -4.13071918    0.60239899   -1.78599405
 H         -2.86099005    0.28742799   -0.05426100
 H         -2.46515608    1.71436596   -1.02648306
 H         -4.05449295    1.09841204   -2.76130605
 H         -4.82651997    1.19339299   -1.18077898
 C         -0.51482201   -2.09764791   -2.65872502
 C          0.16516501    0.09881100   -0.84757698
 C          0.90424198   -1.89375198   -2.00896502
 H         -0.68807298   -3.17177892   -2.76438189
 H          1.69391894   -2.17260289   -2.70926595
 H         -0.49912599   -1.63279200   -3.64858508
 H          0.98706001   -2.45833111   -1.07746005
 H         -0.08920600   -0.42476201    0.07291600
 C         -2.08253694   -2.33272696   -0.67738098
 H         -2.83831501   -2.98876595   -1.13337696
 H         -1.29531705   -2.96441293   -0.25061300
 H         -2.56965899   -1.77316797    0.12636900
 N          1.02504003   -0.49387601   -1.71070099
 C          0.40428901    1.58860099   -0.88218403
 H          1.04038596    1.81666005   -0.01757700
 H         -0.50913501    2.17349410   -0.76838100
 C          1.14514101    1.81702101   -2.20132589
 H          0.52704799    2.30082989   -2.96385098
 H          2.05406904    2.41295505   -2.08339810
 C          1.49966300    0.42733499   -2.69040608
 O          2.02275205    0.07839000   -3.71303892
 C         -1.70657897   -0.10544900   -1.83695304
 H         -1.35212004    0.37177399   -2.75556111
 C         -4.64317608   -0.80365598   -1.95855200
 C         -5.29020119   -1.46498096   -0.90458900
 C         -4.41811514   -1.51043606   -3.13713288
 C         -5.68966103   -2.78441095   -1.03193104
 H         -5.44168711   -0.94900203    0.04022500
 C         -4.81144714   -2.84320807   -3.28416491
 H         -3.92356396   -1.01505399   -3.97090602
 C         -5.45344019   -3.48289490   -2.22312689
 H         -6.18380022   -3.30375791   -0.21764199
 H         -4.62610579   -3.35566592   -4.22107077
 C         -5.68285418   -5.49913216   -3.44022703
 H         -4.61473799   -5.58952999   -3.67583489
 H         -6.09900522   -6.49127722   -3.26568699
 H         -6.19801188   -5.03210878   -4.28870296
 O         -5.88716078   -4.77214098   -2.25154710
 C          4.34265614   -3.43635798    2.04803205
 C          3.10916400   -2.84643888    1.33944094
 C          3.05474591   -2.27684903    3.71799588
 C          4.49978113   -2.51582503    3.26278710
 H          4.12427521   -4.46047783    2.37131190
 H          5.22319078   -3.45309901    1.40176702
 H          2.90166593   -1.28140604    4.14667988
 H          2.74212599   -3.03254700    4.44649076
 H          4.95576191   -1.57044101    2.95393896
 H          5.11346197   -2.94935393    4.05479622
 C          3.48519492   -1.70971000    0.40265799
 C          4.01729107   -2.03034711   -0.91113597
 C          3.37238002   -0.41410899    0.79022598
 C          4.40997219   -0.96433300   -1.77148700
 C          3.78154802    0.67965400   -0.05079200
 H          2.94643402   -0.17292300    1.76016605
 C          4.31001091    0.39276099   -1.33562601
 H          2.54466105   -3.60210395    0.78465998
 N          2.28574204   -2.41699409    2.47269297
 C          0.98454601   -2.12435508    2.27034593
 O          0.49745700   -2.16037512    1.13676202
 C          0.09184100   -1.80511999    3.48210406
 H          0.71077800   -1.48716295    4.32773685
 C         -0.37652501    0.56266803    3.01253700
 S          1.22580194    1.02702296    3.28916097
 C         -1.38923395    2.60523009    1.96969903
 C         -0.27081400    3.42179704    1.76411903
 C         -2.60764694    2.96003103    1.36291695
 C         -0.36384100    4.49626398    0.88474298
 H          0.66904497    3.19089293    2.24418807
 C         -2.67486501    4.05735397    0.52013701
 H         -3.48190594    2.33043504    1.52018905
 C         -1.55073798    4.83555508    0.24983400
 H         -1.60233796    5.67479610   -0.43555999
 C         -3.94293690    4.32863712   -0.23875000
 C          0.89952302    5.19338179    0.47264099
 F         -3.87314296    3.80082297   -1.47973394
 F         -5.01587391    3.79491591    0.35068700
 F         -4.16032600    5.64057302   -0.39260101
 F          0.70686799    6.49083090    0.21109401
 F          1.38500094    4.63753891   -0.66181499
 F          1.87146902    5.09549284    1.38883901
 N         -1.40424597    1.40419900    2.67631412
 N         -0.78454697   -0.71060699    3.13393998
 C         -0.74529201   -3.03944993    3.93172908
 C         -1.57355905   -3.63992405    2.78780007
 C          0.21014801   -4.10825205    4.47516584
 C         -1.69005704   -2.59500909    5.05801201
 H         -0.93481702   -4.03858280    1.99455500
 H         -2.17903495   -4.46125412    3.18646789
 H         -2.26466703   -2.91162109    2.34879899
 H         -0.36091000   -4.99014521    4.78213692
 H          0.93646002   -4.42911577    3.71874094
 H          0.75599903   -3.74325991    5.35300493
 H         -1.14162302   -2.07666898    5.85289621
 H         -2.47738409   -1.93092203    4.68807507
 H         -2.17409301   -3.47471809    5.49523020
 H         -1.74735200   -0.92710000    2.84102607
 H         -2.32114506    0.92765200    2.63015294
 C          3.67632103    2.01388407    0.36705801
 C          4.10041380    3.04931498   -0.46169701
 H          3.25770092    2.22922707    1.34799898
 H          4.00667000    4.07641220   -0.12526400
 C          4.72773314    1.45448101   -2.18345094
 C          4.62453794    2.77319503   -1.72244000
 H          4.95121622    3.58460903   -2.36752009
 C          4.14525223   -3.34637403   -1.37860405
 C          4.61873007   -3.60916090   -2.66120601
 H          3.87335300   -4.18106699   -0.74067497
 H          4.70167208   -4.63702297   -3.00059009
 C          4.90268803   -1.24228096   -3.07528090
 C          4.99052906   -2.57058406   -3.50510502
 H          5.36109400   -2.78068089   -4.50459623
 C          5.30649090   -0.14666501   -3.91895103
 C          5.23143005    1.13568699   -3.49372697
 H          5.67766905   -0.37873399   -4.91333389
 H          5.54294014    1.95287395   -4.13849878
Cl         -3.82607889   -0.52520901    2.20368195
