123
title
 C          2.66042900   -2.72469592   -1.60465395
 C          3.27630496   -0.26437801   -1.21392798
 C          3.92488003   -3.25772691   -2.31962204
 H          2.70033097   -2.94111609   -0.53550899
 H          1.78618598   -3.25209999   -2.00036693
 H          3.85404396   -3.06250596   -3.39679193
 H          3.94642711   -4.34527588   -2.19283295
 C          3.28997898    1.08627105   -1.82202399
 C          0.93005598   -0.41907901   -1.08762002
 C          1.90447795    1.76543999   -1.47469103
 H          4.08876705    1.70843601   -1.41116905
 H          1.74565399    2.63464093   -2.11503196
 H          3.37539005    1.04229403   -2.91084504
 H          1.88154697    2.04123592   -0.41761699
 H          1.11954606   -0.43411601   -0.01392800
 C          3.80623603   -0.40322101    0.16807599
 H          4.89700699   -0.27521399    0.13930400
 H          3.38464499    0.40300199    0.78609997
 H          3.55426502   -1.35825300    0.63110000
 N          0.87047303    0.80681300   -1.72175395
 C         -0.22384000   -1.24019599   -1.62801099
 H         -1.06540298   -1.06190097   -0.94769198
 H         -0.02671500   -2.31093311   -1.63081598
 C         -0.49960300   -0.62697101   -3.00308990
 H         -0.12989900   -1.23907900   -3.83186197
 H         -1.56124699   -0.43639001   -3.18044305
 C          0.26533899    0.68530899   -2.99543190
 O          0.42096299    1.48429704   -3.88169098
 C          2.52461004   -1.24529898   -1.86394894
 H          2.30145097   -1.01571405   -2.91084504
 C          5.18581486   -2.64429808   -1.76793206
 C          5.70519781   -3.07094598   -0.54658401
 C          5.81963491   -1.57281697   -2.41003108
 C          6.81654119   -2.46056700    0.03068000
 H          5.22126389   -3.88991094   -0.01887100
 C          6.92466688   -0.94679999   -1.85102499
 H          5.44029284   -1.22569299   -3.36942196
 C          7.43080807   -1.38862395   -0.62366700
 H          7.18818092   -2.82301402    0.98177099
 H          7.42357683   -0.12110300   -2.34766293
 C          9.05604267   -1.14038301    1.07958698
 H          9.90741253   -0.48867500    1.27401698
 H          8.32432270   -1.03665400    1.88986599
 H          9.39715576   -2.18132091    1.03213203
 O          8.51620865   -0.72108102   -0.15534000
 C         -0.37650800    5.12794781    1.95494103
 C          0.15340801    3.78203392    1.42076695
 C         -0.78836101    3.49681711    3.66143107
 C         -1.43841803    4.69331312    2.96664691
 H          0.43241099    5.66782904    2.46057391
 H         -0.77392101    5.76050377    1.15887594
 H         -1.52368701    2.77065396    4.01473379
 H         -0.15698300    3.81914091    4.49885893
 H         -2.34061599    4.36555386    2.44029498
 H         -1.71510196    5.48118591    3.66999888
 C         -0.65122801    3.27819109    0.23123500
 C         -0.47847101    3.94570208   -1.04898500
 C         -1.52575600    2.24684501    0.34458500
 C         -1.24672103    3.50408602   -2.16398692
 C         -2.30999708    1.77911794   -0.76717597
 H         -1.66433096    1.74516106    1.29940104
 C         -2.16923594    2.42272091   -2.02335405
 H          1.20965302    3.84160900    1.13440299
 N          0.04499700    2.91286492    2.59727001
 C          0.63201100    1.69772100    2.58809590
 O          1.28836203    1.30832601    1.61773396
 C          0.44449300    0.78069800    3.80887103
 H         -0.32827601    1.17843699    4.46890306
 C         -1.32873905   -0.76263601    3.06722903
 S         -2.59020901    0.30525699    3.41357493
 C         -2.50834703   -2.38536906    1.60743701
 C         -3.87077188   -2.12671995    1.78338504
 C         -2.08120704   -3.07290292    0.46306199
 C         -4.76480818   -2.49617791    0.78039598
 H         -4.22279978   -1.63401103    2.67891312
 C         -2.99281311   -3.42040110   -0.52138799
 H         -1.02175105   -3.29375291    0.34877601
 C         -4.34734488   -3.13416409   -0.38082400
 H         -5.05914021   -3.40890002   -1.15243101
 C         -2.50037289   -3.99296689   -1.81724596
 C         -6.21148300   -2.11267209    0.91244102
 F         -2.40180898   -3.02781701   -2.75824499
 F         -1.28224301   -4.54186392   -1.70550203
 F         -3.32762790   -4.92213821   -2.30868602
 F         -6.44524097   -0.92252702    0.32936499
 F         -6.59484720   -2.00908995    2.18863606
 F         -7.01700878   -3.00150895    0.31235501
 N         -1.49822402   -2.00190401    2.50252509
 N         -0.03151100   -0.49886599    3.32736492
 C          1.74148595    0.62995601    4.64624882
 C          2.93482399    0.12769499    3.82251596
 C          2.07833099    2.00340009    5.23966885
 C          1.45708096   -0.35869199    5.78334379
 H          3.25733495    0.87709099    3.09515405
 H          3.77189589   -0.07571400    4.50009680
 H          2.71043491   -0.79843098    3.28006792
 H          1.27904105    2.35538292    5.90251493
 H          2.99952602    1.94279897    5.82834482
 H          2.23319697    2.75471807    4.45536900
 H          0.56879801   -0.06212300    6.35265779
 H          1.29162395   -1.36804199    5.39673424
 H          2.30956197   -0.39015299    6.47030210
 H          0.65973401   -1.09430301    2.85212302
 H         -0.60814297   -2.47824001    2.30335689
 C         -3.21602988    0.71774399   -0.63349599
 C         -3.97328901    0.29723999   -1.72438300
 H         -3.33571601    0.24313200    0.33887500
 H         -4.68810606   -0.50931197   -1.59742200
 C         -2.94100690    1.98542702   -3.13364005
 C         -3.83944607    0.92451400   -2.96062493
 H         -4.43698215    0.59599602   -3.80716896
 C          0.42949000    4.99808884   -1.24115896
 C          0.58506697    5.59355497   -2.48993492
 H          1.02896404    5.35993910   -0.41178301
 H          1.29842305    6.40299082   -2.61131191
 C         -1.08984601    4.12565613   -3.43257999
 C         -0.16648000    5.16566181   -3.57653189
 H         -0.04321100    5.63452911   -4.54883289
 C         -1.88280797    3.66144609   -4.54150391
 C         -2.76611710    2.64604712   -4.40051699
 H         -1.74858403    4.14848995   -5.50341988
 H         -3.35818195    2.30445290   -5.24532080
Cl          1.41468799   -2.70771599    1.52691102
