123
title
 C          2.84856296    0.64674902    0.99425602
 C          2.89357090   -1.88765705    1.25066996
 C          3.83973002    1.19304705    2.04718590
 H          3.37325501    0.51511002    0.04599600
 H          2.06660700    1.39346194    0.81895399
 H          3.30315709    1.37812698    2.98548603
 H          4.21014500    2.15886497    1.68968904
 C          2.30119705   -3.08735490    1.86507201
 C          0.69545102   -1.11522496    0.36626801
 C          1.05332196   -3.45379806    0.94581598
 H          2.98689008   -3.93765807    1.85888696
 H          0.49040300   -4.26184177    1.41432202
 H          1.91925395   -2.91599107    2.87491488
 H          1.39489901   -3.72291708   -0.05616100
 H          1.16810405   -1.18105602   -0.61259598
 C          3.98296404   -2.12364602    0.26435801
 H          4.19338179   -1.27267396   -0.38176301
 H          4.89480305   -2.35681295    0.83486998
 H          3.73822403   -2.98667312   -0.36513099
 N          0.22988200   -2.29170203    0.89531600
 C         -0.35941100   -0.05533000    0.65069598
 H         -1.02210402   -0.02796700   -0.22405501
 H          0.04847000    0.94609398    0.79114503
 C         -1.11558998   -0.60531998    1.86234903
 H         -0.80777299   -0.14432099    2.80776906
 H         -2.19788194   -0.51381803    1.77097905
 C         -0.74979299   -2.07191992    1.90067303
 O         -1.10914505   -2.93867207    2.65145802
 C          2.24265099   -0.66188997    1.44377804
 H          1.68089902   -0.58784902    2.37970901
 C          4.98923492    0.24719100    2.28466105
 C          6.09046793    0.23531500    1.43062794
 C          4.94279718   -0.70873499    3.30826998
 C          7.11632013   -0.69799298    1.57257998
 H          6.14511585    0.96075398    0.62355900
 C          5.94967413   -1.64930797    3.46404696
 H          4.10037088   -0.71346498    3.99734497
 C          7.04548311   -1.65055394    2.59276509
 H          7.95600510   -0.67314500    0.88813001
 H          5.92146015   -2.38824105    4.25802517
 C          9.10120678   -2.64035606    1.96162105
 H          8.79774189   -2.82145190    0.92352200
 H          9.67432690   -1.70710003    2.01356602
 H          9.72164059   -3.46649003    2.30756307
 O          7.98320198   -2.60346794    2.82295990
 C         -6.58500624   -1.09001505   -0.31768101
 C         -5.10523510   -1.25064504    0.08130300
 C         -5.33334017   -1.22938204   -2.35633993
 C         -6.49265909   -0.46573800   -1.71272802
 H         -7.06273699   -2.07487392   -0.37400100
 H         -7.13866901   -0.47463900    0.39499301
 H         -4.80186319   -0.63911998   -3.10718393
 H         -5.68397093   -2.16498089   -2.81029892
 H         -6.23229885    0.59439099   -1.62764895
 H         -7.41690779   -0.54989600   -2.28796196
 C         -4.55432415   -0.03290300    0.80572599
 C         -4.83865881    0.11693300    2.22402501
 C         -3.77940106    0.88185197    0.17032400
 C         -4.23719597    1.19651496    2.93433905
 C         -3.16003799    1.97948301    0.86409998
 H         -3.55178690    0.76056898   -0.88587600
 C         -3.38334894    2.12070394    2.25782394
 H         -4.93813896   -2.12503099    0.71928602
 N         -4.45801115   -1.50875497   -1.21155405
 C         -3.16848612   -1.91761005   -1.23415899
 O         -2.51262403   -2.00633502   -0.19878601
 C         -2.53482890   -2.33291006   -2.57444596
 H         -3.13737392   -1.96633196   -3.41166496
 C         -1.00831997   -0.43035501   -2.92322493
 S         -2.26940393    0.65889800   -3.18364096
 C          1.00305796    1.06772804   -2.71398497
 C          2.39060998    0.94630402   -2.52008796
 C          0.41382101    2.33445311   -2.60244012
 C          3.14747405    2.05958200   -2.18812799
 H          2.85375404   -0.03539700   -2.60354805
 C          1.20133603    3.42716408   -2.25953698
 H         -0.64304298    2.45953488   -2.78503203
 C          2.56825709    3.31625795   -2.04041696
 H          3.16303396    4.17867517   -1.75735199
 C          0.56725699    4.78541279   -2.14105892
 C          4.62356806    1.92726505   -1.94971502
 F         -0.77117300    4.71887589   -2.09876609
 F          0.96935302    5.41031218   -1.01830494
 F          0.89804298    5.58183384   -3.16441298
 F          5.35128689    2.48082900   -2.92306590
 F          5.01067495    0.64611202   -1.83369195
 F          4.98002386    2.54458308   -0.80149102
 N          0.32857299   -0.12481700   -2.96237302
 N         -1.21979201   -1.73431301   -2.67526197
 C         -2.43112111   -3.87984395   -2.69726205
 C         -1.77788496   -4.21344995   -4.04596996
 C         -1.60303903   -4.51211214   -1.56813800
 C         -3.85123491   -4.45756388   -2.66990900
 H         -2.31244111   -3.73370004   -4.87378693
 H         -0.73101300   -3.89518404   -4.07878017
 H         -1.80154598   -5.29637480   -4.20748806
 H         -1.56343400   -5.59529686   -1.72867799
 H         -0.56812602   -4.14990091   -1.56854999
 H         -2.03783703   -4.31768513   -0.58477801
 H         -3.81012702   -5.54680681   -2.76961803
 H         -4.36698818   -4.22718096   -1.73040605
 H         -4.45181513   -4.06913280   -3.50088191
 H         -0.40301999   -2.31878304   -2.47131491
 H          0.94540399   -0.95162398   -2.93855190
 C         -2.30545092    2.87691307    0.21047799
 C         -1.67773998    3.89765692    0.91921902
 H         -2.13476110    2.75891089   -0.85696399
 H         -1.01587796    4.58453608    0.40241301
 C         -2.74928093    3.17201304    2.97292495
 C         -1.89842796    4.04493713    2.28533196
 H         -1.41186404    4.84775782    2.83321309
 C         -5.66877317   -0.76423699    2.93076301
 C         -5.90191221   -0.59611899    4.29248095
 H         -6.14477110   -1.59354603    2.41792989
 H         -6.55056190   -1.29324996    4.81351614
 C         -4.46993017    1.35232198    4.32838202
 C         -5.30849314    0.44818100    4.98842192
 H         -5.48753786    0.57106602    6.05314779
 C         -3.82782102    2.43740010    5.02593708
 C         -3.00514293    3.30011606    4.38400316
 H         -4.01881123    2.54316211    6.09056997
 H         -2.52330804    4.11159706    4.92302704
Cl          1.86910796   -2.80129004   -2.38593292
