123
title
 C          2.88599300    0.46268901    1.02104795
 C          2.95804000   -2.06067705    0.68591499
 C          3.89009500    0.76229799    2.15773892
 H          3.39560103    0.55924702    0.06050700
 H          2.09501600    1.22029102    1.03424299
 H          3.36857891    0.71283799    3.12108397
 H          4.24269819    1.79083896    2.03226590
 C          2.39049602   -3.37754393    1.02071702
 C          0.72719502   -1.13808703    0.05001400
 C          1.12324703   -3.54161811    0.07043900
 H          3.08280993   -4.19418192    0.80365598
 H          0.57963002   -4.44380903    0.35300800
 H          2.03230691   -3.44813204    2.05119109
 H          1.44188905   -3.56818104   -0.97397798
 H          1.17559397   -0.97132599   -0.92823201
 C          4.02798796   -2.04905295   -0.34883600
 H          4.95568085   -2.39157295    0.13432300
 H          3.77831411   -2.74880004   -1.15438795
 H          4.21539593   -1.07013702   -0.78765899
 N          0.28794500   -2.41119695    0.30710399
 C         -0.32799399   -0.18707199    0.59659398
 H         -1.01538897    0.03148900   -0.23096600
 H          0.07584400    0.76100302    0.95311099
 C         -1.04583597   -1.01128805    1.66789699
 H         -0.71608001   -0.77495199    2.68599391
 H         -2.13100791   -0.91699803    1.62702799
 C         -0.66594201   -2.44204092    1.35982203
 O         -0.99600399   -3.46289396    1.90119100
 C          2.30064607   -0.92157799    1.16818094
 H          1.75944805   -1.07187700    2.10708809
 C          5.05501223   -0.19407900    2.14848208
 C          6.14046621    0.01240800    1.28533697
 C          5.04804707   -1.35237598    2.92240095
 C          7.17138386   -0.90698898    1.19843996
 H          6.16466093    0.90387702    0.66475701
 C          6.07571507   -2.29544997    2.84706402
 H          4.22219181   -1.53149498    3.60835505
 C          7.14520216   -2.07130909    1.97871995
 H          8.01516533   -0.75274903    0.53419101
 H          6.03586388   -3.18015099    3.47165799
 C          8.21423531   -4.09055901    2.59562397
 H          8.22368717   -3.86613393    3.66899705
 H          7.34889078   -4.72471809    2.36681390
 H          9.12954426   -4.61699200    2.32698393
 O          8.20111942   -2.90901399    1.82515097
 C         -6.56226587   -1.06289101   -0.44736099
 C         -5.07234001   -1.29020202   -0.12671600
 C         -5.35585022   -0.70487201   -2.48731589
 C         -6.50780582   -0.12977400   -1.66007102
 H         -7.03153181   -2.01454902   -0.72206098
 H         -7.10534191   -0.63845903    0.40003800
 H         -4.84556723    0.05285100   -3.08768797
 H         -5.70803213   -1.51188099   -3.14228296
 H         -6.25643301    0.88527203   -1.33548903
 H         -7.44404078   -0.09151700   -2.22059798
 C         -4.51606178   -0.26380801    0.84705299
 C         -4.76869822   -0.44768801    2.26730609
 C         -3.76639009    0.78464699    0.42309001
 C         -4.16360092    0.45048800    3.19405198
 C         -3.14374089    1.70434904    1.33743894
 H         -3.56277609    0.91244698   -0.63722998
 C         -3.33674407    1.51931000    2.73059011
 H         -4.88230515   -2.28554511    0.28877500
 N         -4.45346689   -1.23424804   -1.45737004
 C         -3.16157603   -1.60959303   -1.60048103
 O         -2.48137903   -1.92749798   -0.62761301
 C         -2.55587196   -1.69492698   -3.01320696
 H         -3.18125892   -1.15339696   -3.73016500
 C         -1.05535996    0.25825900   -2.94605803
 S         -2.33242893    1.35973501   -2.91973901
 C          0.94660503    1.69760096   -2.44209909
 C          0.34827599    2.89492011   -2.02641010
 C          2.33972692    1.55602205   -2.31422901
 C          1.13432205    3.89136100   -1.45987999
 H         -0.71428502    3.04230499   -2.14925289
 C          3.09455895    2.57425189   -1.75222898
 H          2.80997300    0.62735802   -2.63312101
 C          2.50763202    3.75409698   -1.30510700
 H          3.10177803    4.53721189   -0.84530002
 C          4.57747412    2.41197801   -1.58411396
 C          0.49137300    5.17603922   -1.01602995
 F          4.97800779    1.14460301   -1.77713597
 F          5.27521896    3.18677592   -2.41815305
 F          4.95623684    2.75146294   -0.33193299
 F          0.79621899    6.19363594   -1.82994497
 F          0.90979898    5.52612782    0.21487699
 F         -0.84545100    5.08499908   -0.96805203
 N          0.27703801    0.58430600   -2.94374299
 N         -1.24897802   -1.07075799   -3.00044107
 C         -2.44167900   -3.16997504   -3.49268603
 C         -1.81986499   -3.17346597   -4.89634895
 C         -1.57974994   -4.03413296   -2.55953908
 C         -3.85552406   -3.75884295   -3.56796288
 H         -2.37946105   -2.52318406   -5.57839108
 H         -0.77701700   -2.84114099   -4.87823296
 H         -1.83796597   -4.18996382   -5.30349922
 H         -0.54767501   -3.66845798   -2.50188398
 H         -1.98955595   -4.07634878   -1.54753602
 H         -1.53711200   -5.05084276   -2.96593094
 H         -3.80715394   -4.79400206   -3.92038202
 H         -4.34893703   -3.76179600   -2.58905101
 H         -4.48079014   -3.19616890   -4.27118206
 H         -0.42210600   -1.67463303   -2.95517707
 H          0.90193802   -0.21606800   -3.12644100
 C         -2.31568789    2.74218106    0.89003497
 C         -1.68513000    3.58506989    1.80123901
 H         -2.16800809    2.87432790   -0.17919900
 H         -1.04419601    4.38344097    1.44241703
 C         -2.69986701    2.39041996    3.65480995
 C         -1.87641799    3.41246700    3.16882110
 H         -1.38806605    4.07766914    3.87627292
 C         -5.57209396   -1.48093200    2.76949000
 C         -5.77577019   -1.63275695    4.13782406
 H         -6.05022287   -2.17841411    2.08954501
 H         -6.40416479   -2.44118094    4.49812603
 C         -4.36633492    0.27952501    4.59101820
 C         -5.17883492   -0.76555800    5.04273081
 H         -5.33512211   -0.89226401    6.11059809
 C         -3.72179508    1.18727803    5.50571394
 C         -2.92494011    2.18812299    5.06241512
 H         -3.88979411    1.04380298    6.56982422
 H         -2.44138002    2.86346006    5.76338577
Cl          1.85337996   -2.13254189   -3.03393888
