123
title
 C         -0.71113300   -3.67217803   -3.13329601
 C         -1.00269997   -1.66807795   -1.58283496
 C         -1.96571696   -4.55112219   -2.87707591
 H         -0.88747501   -3.02844596   -4.00029993
 H          0.12710500   -4.33109188   -3.38602901
 H         -1.73482203   -5.26779985   -2.08014107
 H         -2.16783190   -5.13309002   -3.78266907
 C         -0.73095500   -1.07017303   -0.25460801
 C          1.41323805   -1.71071005   -2.16551304
 C          0.60514802   -0.26069900   -0.40606600
 H         -1.50144994   -0.34982201    0.03263100
 H          0.94521099    0.10612600    0.56572002
 H         -0.59605300   -1.82052195    0.53145403
 H          0.45187801    0.56542802   -1.10275996
 H          1.05921996   -1.06631100   -2.96780705
 C         -1.71439302   -0.79586601   -2.56275797
 H         -1.73490703   -1.20071602   -3.57388401
 H         -2.74735093   -0.65958703   -2.21680689
 H         -1.25735199    0.20248701   -2.57090998
 N          1.58349001   -1.16993999   -0.94293702
 C          2.49612308   -2.73665404   -2.39551497
 H          3.27184892   -2.23201990   -2.98306608
 H          2.15212703   -3.59637499   -2.97109389
 C          2.99236894   -3.07068801   -0.98602998
 H          2.61102700   -4.02896404   -0.61836803
 H          4.07964277   -3.08995509   -0.88837600
 C          2.40818810   -1.97600496   -0.10923600
 O          2.53649807   -1.79350400    1.06886995
 C         -0.38934901   -2.86004400   -1.90881503
 H          0.00753800   -3.43923593   -1.07058799
 C         -3.17237091   -3.73171496   -2.49423909
 C         -3.99478793   -3.16222310   -3.46219993
 C         -3.44095111   -3.43195391   -1.15055394
 C         -5.04421997   -2.30679798   -3.12356997
 H         -3.81170893   -3.37729812   -4.51303387
 C         -4.46899986   -2.57674909   -0.79028702
 H         -2.82254291   -3.86780095   -0.36809599
 C         -5.27750111   -2.00487208   -1.77996099
 H         -5.66080904   -1.88496006   -3.90846491
 H         -4.66853905   -2.33485389    0.24853100
 C         -7.08027601   -0.56553298   -2.30675292
 H         -6.49029112    0.06201000   -2.98582792
 H         -7.63338089   -1.30983198   -2.89237189
 H         -7.78570890    0.05829100   -1.75798798
 O         -6.26179600   -1.17989099   -1.33608997
 C         -3.90875196    3.49661994    2.12681103
 C         -3.17038798    2.53429103    1.17703903
 C         -1.93130100    4.63576508    1.38455498
 C         -2.77897906    4.39610004    2.63701105
 H         -4.63812208    4.08733416    1.56061304
 H         -4.43316603    2.96665192    2.92511606
 H         -0.87225002    4.78867912    1.61058903
 H         -2.30757689    5.49389410    0.81435299
 H         -2.18860006    3.85895205    3.38612604
 H         -3.13435602    5.32789993    3.08154607
 C         -2.63515401    1.30604303    1.89434099
 C         -3.55297589    0.21460800    2.18000197
 C         -1.33188403    1.21050000    2.26067400
 C         -3.04658508   -0.96107799    2.80776191
 C         -0.79513699    0.03353700    2.89105701
 H         -0.63980001    2.01826596    2.02967405
 C         -1.66348505   -1.05844998    3.15099096
 H         -3.79999900    2.20001292    0.34609100
 N         -2.11706495    3.39241099    0.62446302
 C         -1.40259194    2.95768595   -0.43776301
 O         -1.58041799    1.83301103   -0.90501601
 C         -0.38972899    3.90869188   -1.09848201
 H         -0.13346900    4.72558022   -0.41825199
 C          1.71985102    2.83283210   -0.42305601
 S          1.58182204    3.35899591    1.17581797
 C          3.65910196    1.22174704   -0.30360600
 C          3.84856105    1.08581698    1.07722402
 C          4.41761684    0.41824299   -1.17299998
 C          4.75198412    0.14464800    1.55413198
 H          3.27958298    1.69045401    1.76694095
 C          5.33353901   -0.49212500   -0.66376501
 H          4.25645924    0.49854699   -2.24619699
 C          5.51264715   -0.65003699    0.70766598
 H          6.19977188   -1.39116502    1.10184598
 C          6.16325092   -1.31393301   -1.60783195
 C          4.87515020   -0.07494200    3.03618097
 F          6.40608215   -2.54009891   -1.10317802
 F          5.54805613   -1.49455798   -2.79043794
 F          7.35030890   -0.75692999   -1.86222398
 F          3.93555593    0.58558702    3.72844696
 F          6.06905413    0.31692901    3.50344610
 F          4.74954796   -1.37766802    3.34009504
 N          2.72144508    2.04706192   -0.92410100
 N          0.82428300    3.17017508   -1.37299705
 C         -0.95623201    4.53310299   -2.40581989
 C         -2.13323307    5.44261789   -2.03277206
 C          0.14766601    5.38310003   -3.04911709
 C         -1.43416202    3.47703695   -3.41253400
 H         -2.55783510    5.88943577   -2.93751097
 H         -2.93225193    4.88593721   -1.52880204
 H         -1.81062806    6.25937414   -1.37635505
 H         -0.26490200    5.94338894   -3.89487410
 H          0.56310099    6.10093403   -2.33271694
 H          0.96541297    4.76122904   -3.42445898
 H         -0.64311397    2.77034903   -3.68913507
 H         -2.27921796    2.90358996   -3.02296090
 H         -1.75395298    3.98561001   -4.32901716
 H          0.88095498    2.67009711   -2.26844406
 H          2.61159205    1.83108401   -1.92681503
 C          0.56452698   -0.08045600    3.20542312
 C          1.06711698   -1.25366604    3.76102495
 H          1.22907603    0.75483298    2.99355602
 H          2.12848902   -1.33527303    3.96883011
 C         -1.14839399   -2.24575996    3.73614502
 C          0.21946600   -2.32310390    4.02734423
 H          0.61455202   -3.23629498    4.46469784
 C         -4.91818905    0.26489800    1.86394203
 C         -5.76734591   -0.79627901    2.16643405
 H         -5.33409214    1.14207494    1.37955403
 H         -6.81830215   -0.73053300    1.90388203
 C         -3.91681910   -2.04922295    3.09492612
 C         -5.27629900   -1.94263005    2.77763391
 H         -5.94058084   -2.77242494    3.00430799
 C         -3.37125707   -3.23643994    3.70242691
 C         -2.05378199   -3.33308291    4.00150824
 H         -4.04910421   -4.05923796    3.91394091
 H         -1.65414703   -4.23587799    4.45610905
Cl          1.65047395    1.10147297   -3.72203898
