89
title
Pd         -0.71972901   -0.83195400   -0.88222402
 P         -0.43572199    0.91894299    0.61036402
 C          1.02536595    0.83806801    1.77392304
 C          0.99020600    1.52159798    3.00432205
 C          2.05943608    1.50139499    3.89782310
 H          1.98950696    2.04273200    4.83781385
 C          3.20789599    0.78122598    3.57629204
 C          3.26351190    0.09713500    2.36531401
 C          2.19706392    0.11318200    1.45009995
 C          2.40754199   -0.67157799    0.18919700
 C          2.87258196   -0.05211300   -0.98390400
 C          3.18805599   -0.80809700   -2.12046599
 C          3.07129192   -2.19279695   -2.06578803
 C          2.63403797   -2.83995295   -0.90981799
 H          2.54510403   -3.91649699   -0.90836900
 C          2.29626489   -2.08426809    0.21963400
 C          4.15179682    2.04411697   -1.28427899
 H          3.98742104    2.99364495   -0.76224297
 C          1.69984400   -3.97917509    1.72719896
 H          1.35018206   -3.91365600    2.76309800
 H          4.14987421   -0.47845799    2.11253190
 C         -1.89371502    1.16535997    1.78110695
 C         -3.19829893    1.45062101    1.00652099
 C         -2.07100511   -0.07223500    2.68776393
 H         -1.69278097    2.03779602    2.41768694
 C         -4.39823818    1.60388696    1.95823705
 H         -3.39039493    0.63060099    0.30426401
 H         -3.09633994    2.36117601    0.40554801
 C         -3.27164197    0.08321300    3.63638091
 H         -2.22071910   -0.95363700    2.04903698
 H         -1.15922904   -0.25639600    3.26701188
 C         -4.56602097    0.37757501    2.86567712
 H         -5.31059599    1.77163601    1.37143898
 H         -4.25808811    2.50000310    2.58186412
 H         -3.38415694   -0.82634997    4.24098778
 H         -3.07464099    0.90395498    4.34278107
 H         -5.40090799    0.52885801    3.56242490
 H         -4.82377005   -0.49342600    2.24607706
 C         -0.11531200    2.59395409   -0.22058100
 C         -0.85886198    2.74624610   -1.56454694
 C         -0.31277001    3.84140110    0.66270697
 H          0.95401001    2.51117492   -0.45668900
 C         -0.42099699    4.02614689   -2.29722404
 H         -1.94401598    2.78277898   -1.39770603
 H         -0.67007899    1.86382699   -2.18704009
 C          0.12007400    5.12071800   -0.07792200
 H         -1.37078094    3.93787789    0.94523102
 H          0.25950801    3.74860096    1.59273303
 C         -0.60675699    5.27418184   -1.42156398
 H         -0.98322600    4.13061094   -3.23455191
 H          0.63946098    3.93477392   -2.57653999
 H         -0.06105600    5.99766111    0.55766201
 H          1.20511699    5.08177805   -0.25524899
 H         -0.24898399    6.16869116   -1.94798303
 H         -1.68039799    5.42911196   -1.23618400
 C         -2.61199999   -1.62818503   -1.78367198
 C         -3.34977698   -2.35675311   -0.83375603
 C         -3.24271989   -0.67088801   -2.59840107
 C         -4.69263220   -2.03813004   -0.62929702
 H         -2.87134695   -3.14711404   -0.26598901
 C         -4.58533621   -0.37053901   -2.37403297
 H         -2.68013191   -0.16775000   -3.37702203
 C         -5.31724024   -1.04454303   -1.38994002
 H         -5.25672197   -2.58485007    0.12250700
 H         -5.06534719    0.39032000   -2.98464799
 H         -6.36707783   -0.81428999   -1.23421097
 H          3.49777293   -0.31716001   -3.03431106
 H          0.10515300    2.08205104    3.28378606
 H          4.05087614    0.74698198    4.26157808
 O          2.93108702    1.32355106   -0.97385800
 O          1.86195004   -2.57974005    1.41324401
 H          3.31643200   -2.78627992   -2.94260097
 C          0.58614200   -4.65397406    0.92075801
 H         -0.30024099   -4.01232719    0.90289998
 H          0.86689901   -4.86947203   -0.11299400
 H          0.31924999   -5.60288906    1.40094697
 C          3.02801108   -4.74235106    1.74867499
 H          2.87348795   -5.72422409    2.21082211
 H          3.44705391   -4.90396404    0.75229597
 H          3.76516390   -4.19673777    2.34670711
 C          5.39701319    1.38279998   -0.69694400
 H          5.60862112    0.42186201   -1.17666805
 H          6.26370287    2.03630900   -0.84780198
 H          5.27357292    1.21634901    0.37755501
 C          4.27792120    2.35195208   -2.77887201
 H          5.03571081    3.12964606   -2.93270493
 H          4.58137083    1.47516596   -3.35959792
 H          3.32495499    2.71921110   -3.17319989
Cl         -1.09202898   -2.54880095   -2.56382203
