89
title
Pd         -0.95538199   -0.44788399   -0.57143497
 P         -0.01881900    1.31693101    0.47684699
 C          1.43947899    1.04787195    1.62346601
 C          1.68989503    1.95185196    2.67409492
 C          2.76706409    1.80541396    3.54620194
 H          2.92006707    2.52822709    4.34366894
 C          3.63609600    0.72850001    3.38670397
 H          4.47972298    0.59140903    4.05834484
 C          3.40793490   -0.17860000    2.35594511
 C          2.32944393   -0.04156800    1.46477497
 C          2.22345591   -1.10630095    0.41318899
 C          2.77109694   -0.92204398   -0.86689901
 C          2.78676295   -1.96652997   -1.80111003
 C          2.28067803   -3.20930409   -1.43575203
 C          1.74468195   -3.42916989   -0.16588899
 H          1.34965897   -4.40441513    0.07984900
 C          1.71219003   -2.38005495    0.76105201
 C          4.57162809    0.59082502   -1.63483799
 H          4.72195721    1.63482702   -1.33694100
 C          0.78766102   -3.65800500    2.69140291
 H          0.56168300   -3.27337909    3.69183207
 C         -1.24220300    2.24610305    1.58035898
 C         -2.46374202    2.72666407    0.76751000
 C         -1.70338297    1.34523201    2.74678493
 H         -0.75375098    3.13730693    1.99755704
 C         -3.50620890    3.42323089    1.65991294
 H         -2.92091990    1.86121297    0.26884800
 H         -2.15023494    3.41430807   -0.02613100
 C         -2.74720097    2.04170108    3.63597894
 H         -2.13474607    0.42680001    2.32406402
 H         -0.84512299    1.03527105    3.35352397
 C         -3.95438600    2.52323508    2.81936598
 H         -4.37043095    3.72211790    1.05186403
 H         -3.07687402    4.35109520    2.06758809
 H         -3.07143497    1.35691500    4.43087482
 H         -2.28317308    2.90393090    4.13874292
 H         -4.66680098    3.05498695    3.46389103
 H         -4.48604298    1.65054798    2.41196609
 C          0.72965997    2.61485910   -0.69378698
 C         -0.03130100    2.71767402   -2.03263998
 C          0.98164600    4.01464081   -0.10021900
 H          1.70451903    2.16063809   -0.91651100
 C          0.71738601    3.61954999   -3.02892303
 H         -1.03711903    3.12814498   -1.86689997
 H         -0.17155699    1.71313798   -2.44895506
 C          1.72471499    4.91910505   -1.10180199
 H          0.02487600    4.48936987    0.16095801
 H          1.56504798    3.94190192    0.82458502
 C          0.98321599    5.01416683   -2.44287801
 H          0.14542501    3.70137310   -3.96285009
 H          1.67676198    3.14766788   -3.28969312
 H          1.86303401    5.91918182   -0.66947103
 H          2.73177600    4.51066685   -1.27323103
 H          1.55565202    5.62641811   -3.15217495
 H          0.02317500    5.52982807   -2.28889298
 C         -3.25539804   -1.51853299   -1.40090501
 C         -3.81699109   -1.94814897   -0.19825999
 C         -3.82446694   -0.50058001   -2.16723609
 C         -4.97149801   -1.30816305    0.26143101
 H         -3.36377001   -2.75608706    0.36456299
 C         -4.97899008    0.12334600   -1.68828905
 H         -3.37413907   -0.19964200   -3.10616708
 C         -5.55364990   -0.27672201   -0.47884399
 H         -5.41707897   -1.62799895    1.19944799
 H         -5.42967081    0.92235500   -2.27060008
 H         -6.45636988    0.20837399   -0.11905200
 H          3.17079091   -1.80002904   -2.79966307
 H          1.02549195    2.79475188    2.82698202
 H          4.07245779   -1.02957499    2.23163009
Br         -1.72655702   -2.54279494   -2.15651989
 H          2.29660606   -4.02695608   -2.15199804
 O          3.22088099    0.34357601   -1.16904998
 O          1.22191405   -2.45219898    2.03263903
 C          5.61437702   -0.26628599   -0.91960597
 H          5.51075983   -1.32579803   -1.17459905
 H          6.61883783    0.05797600   -1.21461904
 H          5.52193308   -0.15839000    0.16542900
 C          4.67842293    0.52474600   -3.16109896
 H          5.61515284    0.99327898   -3.48647690
 H          4.67666721   -0.50455803   -3.53360295
 H          3.84607196    1.06476796   -3.62376094
 C          1.90591705   -4.69302988    2.85010290
 H          1.57894099   -5.47520781    3.54497600
 H          2.18258810   -5.17463112    1.90897405
 H          2.79959011   -4.21821499    3.26795101
 C         -0.52229798   -4.21433878    2.12313890
 H         -1.24254298   -3.39982104    1.99599195
 H         -0.39872199   -4.71406507    1.15889299
 H         -0.94191301   -4.94254589    2.82743692
