91
title
Pd         -0.54003698   -0.89431101   -0.72553599
 P         -0.53083599    0.99661899    0.68476099
 C          0.95905000    1.08352304    1.79071498
 C          0.93274599    1.82027996    2.98878098
 C          2.04414105    1.90425599    3.82520700
 H          1.98847497    2.48104095    4.74468184
 C          3.21882296    1.24081397    3.47384095
 C          3.26203108    0.50497699    2.29253101
 C          2.15215206    0.41358200    1.43630600
 C          2.33282709   -0.40909299    0.19419600
 C          2.71809912    0.19474199   -1.02141595
 C          3.05707598   -0.58422899   -2.13316011
 C          3.03299594   -1.97160399   -2.02188802
 C          2.66986203   -2.60094690   -0.83324897
 H          2.62252998   -3.67900896   -0.79631603
 C          2.32140088   -1.82604599    0.28183299
 C          3.81089401    2.36546898   -1.50279403
 H          3.62662792    3.31591105   -0.98922998
 C          2.16467309   -3.66672707    1.95726395
 H          1.89312899   -3.56729102    3.01370907
 H          4.17132807   -0.02356900    2.01921511
 C         -1.97860503    1.09693205    1.88181806
 C         -3.32452512    1.21354198    1.13271594
 C         -1.98517203   -0.13710700    2.81145406
 H         -1.86220300    1.99810004    2.50003791
 C         -4.51400995    1.23416698    2.10900402
 H         -3.43258595    0.36544901    0.44510800
 H         -3.34468198    2.12096190    0.51897299
 C         -3.17989898   -0.11589600    3.77966809
 H         -2.03265190   -1.04343796    2.19176006
 H         -1.04789901   -0.19446400    3.37619400
 C         -4.51380205    0.00685100    3.03029895
 H         -5.45171690    1.28600001    1.54106498
 H         -4.46793079    2.14755392    2.72130895
 H         -3.16871595   -1.02356195    4.39685822
 H         -3.07299209    0.73292202    4.47195721
 H         -5.34841108    0.06231800    3.74107599
 H         -4.67361593   -0.89700902    2.42451596
 C         -0.42627800    2.65622807   -0.21835800
 C         -1.21151197    2.65870309   -1.54774797
 C         -0.75262100    3.90609097    0.62195700
 H          0.64030403    2.68942094   -0.47866201
 C         -0.95343500    3.95216393   -2.33943105
 H         -2.28877997    2.56554508   -1.35454202
 H         -0.92665100    1.78436303   -2.14403391
 C         -0.49923900    5.19621706   -0.18019600
 H         -1.80661702    3.88447809    0.93291903
 H         -0.14948900    3.92142892    1.53699994
 C         -1.27267897    5.20225477   -1.50659394
 H         -1.54594505    3.94707894   -3.26350188
 H          0.10320500    3.98106003   -2.64525199
 H         -0.77184200    6.06978512    0.42637199
 H          0.57749498    5.28309107   -0.38791999
 H         -1.04231203    6.11133289   -2.07696199
 H         -2.35234094    5.23056889   -1.29584205
 C         -2.34567690   -1.69851804   -1.59498703
 C         -3.15639591   -2.43170094   -0.72182000
 C         -2.89713311   -0.93222702   -2.62711406
 C         -4.54341412   -2.30101609   -0.81652701
 H         -2.70135093   -3.10318089   -0.00149600
 C         -4.28529882   -0.80968797   -2.70952511
 H         -2.24541306   -0.45769399   -3.35307407
 C         -5.10898399   -1.48383403   -1.80133903
 H         -5.18341589   -2.85425997   -0.13358501
 H         -4.72509480   -0.20203800   -3.49649191
 H         -6.18922806   -1.39716399   -1.88039994
 H          3.30173993   -0.11484500   -3.07717705
 N         -0.74933898   -2.51973510   -2.00495911
 O         -0.30561700   -2.25304008   -3.13327098
 O         -0.56620198   -3.59976912   -1.41727304
 H          0.02479200    2.33469391    3.28588390
 H          4.09429407    1.29102802    4.11596394
 O          2.68302202    1.56940198   -1.05292499
 O          1.95381904   -2.30768108    1.50229704
 H          3.27213001   -2.58090401   -2.88840103
 C          1.19210196   -4.67042780    1.33304906
 H          0.17553499   -4.26802397    1.34105301
 H          1.43388605   -4.92841101    0.29968199
 H          1.20671296   -5.59405422    1.92427301
 C          3.63550210   -4.08718586    1.90248895
 H          3.76044106   -5.03003693    2.44703603
 H          3.99670196   -4.23914099    0.88220102
 H          4.26530313   -3.33081889    2.38259006
 C          5.15325308    1.81617606   -1.02389896
 H          5.39595890    0.86189002   -1.50146794
 H          5.94744110    2.53048205   -1.26854396
 H          5.14387989    1.67055202    0.06089500
 C          3.76557708    2.63661599   -3.00887108
 H          4.44310904    3.46330595   -3.25403690
 H          4.07559395    1.76893306   -3.59921908
 H          2.75355697    2.92140388   -3.31411099
