77
title
Pd         -0.89165902   -0.50576001   -0.33114600
 P          0.66359001    1.05010796    0.17334300
 C          2.08006501    0.60354900    1.31454802
 C          2.70872402    1.59685898    2.08969092
 C          3.78676295    1.31813002    2.92793989
 H          4.23979092    2.11686897    3.50986505
 C          4.27362299    0.01566500    3.00987792
 H          5.11373997   -0.22331300    3.65678406
 C          3.66743302   -0.98306203    2.25374508
 C          2.57709503   -0.71878397    1.40807199
 C          2.02583194   -1.90708005    0.67761302
 C          2.49391699   -2.26176095   -0.59991002
 C          2.08330989   -3.44912910   -1.22076094
 C          1.20799196   -4.29695177   -0.54548901
 C          0.73734802   -3.98690605    0.72887999
 H          0.06011400   -4.66500807    1.23333204
 C          1.15117800   -2.79345894    1.33590102
 C          3.92000294   -1.69553804   -2.43870902
 H          4.48191595   -2.63852811   -2.41206193
 H          4.60095501   -0.87768501   -2.68232203
 H          3.14147902   -1.76089203   -3.21011901
 C         -0.13308001   -3.23907590    3.30321288
 H         -1.08927202   -3.34813809    2.77475190
 H         -0.30335400   -2.73959994    4.25877094
 H          0.29361501   -4.23473120    3.48652005
 C         -0.07209800    2.58043599    1.00494695
 C         -1.15431094    3.23124290    0.11682200
 C         -0.67038298    2.20633101    2.37875009
 H          0.71920502    3.32682300    1.15794396
 C         -1.80903304    4.43966913    0.80941802
 H         -1.91911602    2.47924209   -0.11992200
 H         -0.72507900    3.55208611   -0.83909500
 C         -1.32620001    3.41403198    3.06906295
 H         -1.42071402    1.41787100    2.22550797
 H          0.10112900    1.77926600    3.02918792
 C         -2.39363790    4.06386709    2.17775202
 H         -2.59112906    4.85650206    0.16095300
 H         -1.05920398    5.23430920    0.94252801
 H         -1.76559901    3.09952402    4.02501106
 H         -0.55447298    4.16015720    3.31238103
 H         -2.81728292    4.94960690    2.66933990
 H         -3.22241807    3.35538912    2.03205609
 C          1.65581298    1.68457794   -1.32049096
 C          0.82632202    1.70485401   -2.62183404
 C          2.40712690    3.01690602   -1.13113999
 H          2.40671492    0.88958597   -1.42935300
 C          1.70840502    2.02793908   -3.84017205
 H          0.02978600    2.45826197   -2.55006504
 H          0.32486701    0.73807800   -2.74966311
 C          3.28484511    3.34169793   -2.35468102
 H          1.68681300    3.83488297   -0.98689902
 H          3.03404689    2.98059011   -0.23315200
 C          2.46906090    3.34946394   -3.65542197
 H          1.09260702    2.06592107   -4.74860191
 H          2.43265700    1.21231306   -3.98765612
 H          3.78245091    4.30985117   -2.20971990
 H          4.08346605    2.58894992   -2.43192410
 H          3.12470889    3.53867292   -4.51556396
 H          1.74721098    4.17956400   -3.62429810
 C         -3.49570489   -0.91887701   -0.63454598
 C         -3.93402910   -0.85702902    0.68870997
 C         -3.88092303    0.02076800   -1.59172499
 C         -4.76014519    0.20573500    1.06520295
 H         -3.63525796   -1.61358905    1.40508294
 C         -4.70804119    1.07326496   -1.19220698
 H         -3.53835201   -0.06381200   -2.61665893
 C         -5.14893579    1.16818500    0.13059799
 H         -5.10396194    0.27095699    2.09386611
 H         -5.01081991    1.81647897   -1.92472804
 H         -5.79993105    1.98459899    0.42947999
 H          2.43999290   -3.71761489   -2.20748210
 H          2.35042095    2.61919904    2.04794908
 H          4.03570700   -2.00351405    2.31479311
Br         -2.49076509   -2.53194308   -1.23000395
 H          0.89308298   -5.22348690   -1.01865304
 O          3.37424111   -1.37958801   -1.16894400
 O          0.76435000   -2.40884089    2.58801603
