98
title
Pd         -0.04188300    1.23825502    0.01306300
 P         -1.96143603   -0.20451200   -0.07365600
 C         -1.28234398   -1.95966399   -0.05629400
 C         -2.12608504   -3.10374498   -0.06023000
 C         -1.60520899   -4.39328098   -0.04705000
 H         -2.25629401   -5.25858402   -0.06517800
 C         -0.22801600   -4.58812904    0.01591700
 H          0.15901500   -5.59966278    0.04147300
 C          0.62464100   -3.49203801    0.06474000
 C          0.12132100   -2.16088700    0.00829600
 C          1.21258402   -1.10345304    0.06599000
 C          1.73961103   -0.72283602    1.33817399
 C          2.96883798   -0.05812900    1.39994097
 C          3.73131895    0.22341400    0.26786500
 C          3.21606493   -0.17010500   -0.96969098
 H          3.79036808    0.03799500   -1.86694205
 C          1.99261105   -0.83094603   -1.10185397
 C          1.07352400   -1.11353803    2.65645790
 H          0.11224300   -1.57843196    2.42205310
 C          0.79801702    0.10192700    3.56192303
 H          1.72732604    0.58868903    3.87792706
 H          0.26198399   -0.20908099    4.46746778
 H          0.19556800    0.85291302    3.03958297
 C          1.91090596   -2.16759300    3.41096210
 H          2.10426307   -3.04161692    2.78206897
 H          1.38534200   -2.49903202    4.31520081
 H          2.87943697   -1.75644898    3.71885705
 C          5.09019899    0.89726502    0.39700601
 H          5.16141510    1.27184999    1.42708194
 C          5.25183201    2.10474896   -0.54309797
 H          5.27215290    1.79518700   -1.59513295
 H          6.19770622    2.61968207   -0.33426401
 H          4.42659283    2.80973697   -0.41622701
 C          6.22927904   -0.12279200    0.19466200
 H          6.14851189   -0.95845902    0.89955503
 H          7.20620489    0.35445699    0.34028199
 H          6.20785189   -0.53823102   -0.82046098
 C          1.58539104   -1.30315900   -2.49790311
 H          0.54688400   -1.64224195   -2.44669390
 C          1.66561306   -0.17864899   -3.55068588
 H          1.18559098    0.73988599   -3.20398808
 H          1.18456995   -0.50033897   -4.48252916
 H          2.70585299    0.06913400   -3.79110909
 C          2.43533301   -2.50499701   -2.96283197
 H          3.49290705   -2.22577691   -3.04053998
 H          2.10514998   -2.84412098   -3.95273900
 H          2.36240506   -3.34360790   -2.26646996
 C         -2.88268995    0.06751300   -1.75864601
 C         -3.49507403    1.48503101   -1.72358000
 C         -1.79602802    0.05346300   -2.84975100
 H         -2.75902796    2.24240494   -1.44373202
 H         -4.34453201    1.56369996   -1.04014301
 H         -0.99791998    0.77006602   -2.63700104
 H         -1.34894705   -0.93867898   -2.96149397
 C         -3.22391295   -0.02385200    1.40511894
 C         -3.10612392    1.44037104    1.88171005
 C         -4.71026897   -0.30750999    1.11213303
 H         -3.38021898    2.15859294    1.10377598
 H         -2.08969903    1.67884398    2.20273995
 H         -5.13020706    0.36862499    0.36370200
 H         -4.87660217   -1.33370602    0.79014897
 C         -0.31777301    3.42754006    0.02040100
 C         -0.83165801    4.00627279   -1.14561403
 C         -0.61729199    3.96382093    1.27816200
 C         -1.74538004    5.05606699   -1.04080200
 H         -0.49333200    3.64975500   -2.11302805
 C         -1.53609896    5.00972319    1.37212205
 H         -0.11554600    3.57872295    2.15973210
 C         -2.10880995    5.55109596    0.21623500
 H         -2.15885806    5.50121593   -1.94242096
 H         -1.78779399    5.41833591    2.34765601
 H         -2.80894709    6.37857819    0.29282999
 H          3.35312390    0.24270500    2.37103391
 C         -4.36084986   -3.97957397   -0.13752200
 H         -5.36680603   -3.55575490   -0.14852300
 H         -4.19921780   -4.55125904   -1.06053495
 H         -4.26192808   -4.64984798    0.72619301
 O         -3.47573709   -2.87567496   -0.04718500
 N          1.36089802    2.78630996   -0.14264500
 O          2.06851292    2.96756291    0.86506099
 O          1.80090404    2.82933998   -1.31015897
 C          2.54115009   -4.92079878    0.26088300
 H          3.61806512   -4.77562714    0.36033899
 H          2.16558003   -5.46695900    1.13663495
 H          2.33769393   -5.50724983   -0.64532501
 O          1.98485303   -3.61941290    0.17867100
 C         -3.96782303   -0.94122499   -2.17876101
 H         -3.55655909   -1.94302905   -2.32108688
 H         -4.79251909   -1.00724006   -1.46842802
 H         -4.38258314   -0.61257797   -3.14211011
 C         -2.77742600   -0.93878901    2.56107712
 H         -2.88919306   -1.99788499    2.31638408
 H         -1.74092805   -0.75441599    2.85152698
 H         -3.40389895   -0.72951001    3.43870902
 H         -3.78235507    1.59511697    2.73388100
 H         -5.27791786   -0.14711800    2.03920102
 H         -3.86512709    1.73204303   -2.72788000
 H         -2.24948406    0.32214299   -3.81344700
