96
title
Pd          0.49932200    1.23494005   -0.34517899
 P          1.74874902   -0.71334100   -0.08047800
 C          0.56857002   -2.17720103    0.16236401
 C          1.05539000   -3.50877094    0.27935401
 C          0.20605500   -4.58438301    0.51647103
 H          0.59453201   -5.58960485    0.62375402
 C         -1.16837001   -4.38197088    0.59430897
 H         -1.81670499   -5.23237181    0.76757801
 C         -1.68703794   -3.10461998    0.42442599
 C         -0.83940101   -1.97770596    0.21932800
 C         -1.61405504   -0.68256301    0.03225200
 C         -2.12132001   -0.36077300   -1.25610197
 C         -3.06244206    0.66697901   -1.38621795
 C         -3.55660295    1.37825894   -0.29369000
 C         -3.07242608    1.02967405    0.96991903
 H         -3.45685005    1.55073202    1.84230101
 C         -2.12909389    0.01623300    1.16178298
 C         -1.74273896   -1.14372504   -2.51216412
 H         -0.92907298   -1.82553995   -2.25048995
 C         -1.23761499   -0.23086700   -3.64620805
 H         -2.03357506    0.42034599   -4.02569818
 H         -0.87791598   -0.83307999   -4.48991585
 H         -0.42021799    0.41085899   -3.30031490
 C         -2.92068505   -2.01084089   -3.00336695
 H         -3.27568293   -2.67848611   -2.21272397
 H         -2.61772108   -2.62052393   -3.86388803
 H         -3.76562595   -1.38601899   -3.31701708
 C         -4.63684607    2.43644500   -0.47789899
 H         -4.71966600    2.62592793   -1.55713403
 C         -4.29362822    3.77525401    0.19937600
 H         -4.23804522    3.67147803    1.28965402
 H         -5.06487703    4.52355480   -0.02027200
 H         -3.32970691    4.16051817   -0.14814200
 C         -6.00616980    1.91467094    0.00406400
 H         -6.28030586    0.98717803   -0.51092303
 H         -6.79330111    2.65574908   -0.18231700
 H         -5.98949099    1.70617604    1.08081305
 C         -1.74971294   -0.34232101    2.59845304
 H         -0.88305598   -1.00779295    2.55893707
 C         -1.35455704    0.88984501    3.43594193
 H         -0.61361301    1.50488400    2.91749811
 H         -0.93171799    0.57541299    4.39782619
 H         -2.22196603    1.52372801    3.65424705
 C         -2.88638496   -1.10643995    3.31048393
 H         -3.78121710   -0.47821701    3.39867091
 H         -2.57858896   -1.39484203    4.32353210
 H         -3.16576910   -2.00833988    2.76101804
 C          2.87073302   -0.60780197    1.50283897
 C          3.84476900    0.56944501    1.27636003
 C          1.93464005   -0.22864699    2.66484094
 H          3.32106400    1.47949195    0.97563702
 H          4.60750818    0.34633499    0.52489501
 H          1.36428499    0.67506301    2.43980193
 H          1.23277795   -1.03592801    2.89727998
 C          2.85802889   -1.08295095   -1.65246606
 C          3.13065600    0.28889501   -2.31001091
 C          4.22028780   -1.76682997   -1.42599702
 H          3.69848704    0.95690501   -1.65591395
 H          2.19826293    0.79880601   -2.56936097
 H          4.88760996   -1.17630303   -0.79321998
 H          4.11583614   -2.76027799   -0.99439800
 C          1.33681202    3.38190293   -0.14124100
 C          1.43678498    3.72828889    1.21893096
 C          2.38950491    3.67692399   -1.02633905
 C          2.63537502    4.25365782    1.70226896
 H          0.58894700    3.57949996    1.87894905
 C          3.57674694    4.20148182   -0.52026200
 H          2.27638888    3.47858500   -2.08644509
 C          3.71318507    4.48781490    0.84347600
 H          2.71788096    4.49428415    2.75949311
 H          4.39942694    4.39980316   -1.20322704
 H          4.63800812    4.91004181    1.22533798
 H         -3.44008994    0.90935397   -2.37690401
 C          2.95333600   -4.98011684    0.31394100
 H          4.03002501   -4.87100410    0.17028201
 H          2.76030397   -5.34939098    1.32963395
 H          2.56488490   -5.70377493   -0.41453499
 O          2.40247512   -3.68985391    0.11476200
 C         -3.92812204   -3.94112992    0.60530603
 H         -4.93047380   -3.51152897    0.56165600
 H         -3.81759501   -4.68610096   -0.19427800
 H         -3.78816295   -4.43270683    1.57776403
 O         -3.03666496   -2.85305309    0.43363401
 C          3.67308402   -1.84413600    1.95016599
 H          3.01915598   -2.66822004    2.24390411
 H          4.36537790   -2.20847893    1.19085801
 H          4.26547003   -1.56217504    2.83225012
 C          2.04570508   -1.93312001   -2.64670396
 H          1.08234203   -1.47449696   -2.88011003
 H          2.60692811   -2.01246810   -3.58786893
 H          1.87088096   -2.94614792   -2.27616501
 H          3.71583509    0.13607000   -3.22802401
 H          4.71750498   -1.87306702   -2.40033793
 H          4.37017107    0.77918398    2.21790791
 H          2.53508496   -0.04172800    3.56578112
Cl         -0.44501400    3.42068601   -0.87631398
