26
title
 C         -0.74958199    2.01045489   -1.20882595
 C         -0.56225801    2.64734197    0.11267200
 C         -1.14383197    1.22145700    0.05117000
 H         -1.61687005    2.29538989   -1.80138898
 H          0.12948900    1.72036004   -1.77616096
 H         -1.29397595    3.37425900    0.46302199
 H          0.44761801    2.76292491    0.50229698
 O         -2.50593209    1.18496001    0.33325300
 H         -2.88014603    0.37426299   -0.08009400
 C         -0.33949900    0.14415300    0.63098300
 C         -0.96739399   -0.74552202    1.51741302
 H         -0.33532500   -1.47378397    2.02777100
 H         -1.81268895   -0.35346299    2.08992004
 C          1.06576502   -0.09421600    0.24328101
 C          1.43254495   -0.37905499   -1.08402205
 C          2.05483794   -0.10267100    1.24444401
 C          2.76165199   -0.65536898   -1.39822602
 H          0.67114800   -0.43736199   -1.85796702
 C          3.38631392   -0.34513801    0.91600800
 H          1.77739203    0.10319500    2.27685308
 C          3.74196911   -0.62466699   -0.40487799
 H          3.03036499   -0.90113801   -2.42419791
 H          4.14592218   -0.32699901    1.69575799
 H          4.78107023   -0.82958102   -0.65792203
Cl         -2.90660501   -1.93288302   -0.44211301
 H         -1.66737103   -1.38934302    0.67190701
