28
title
 C         -0.42265999    2.84533310   -0.40992001
 C          1.00043905    2.42004704   -0.69263101
 C          0.05924600    1.49969399    0.03541400
 H         -0.59586698    3.57120895    0.38410100
 H         -1.12226796    2.89679003   -1.24355996
 H          1.79490805    2.86088300   -0.09305600
 H          1.27146006    2.19906211   -1.72445202
 O          0.21791400    1.35512996    1.42796302
 H          0.91307998    0.68608999    1.59042299
 C         -0.46733800    0.22822100   -0.59284002
 C          0.45087200   -0.58593500   -1.25254202
 H          0.12240400   -1.49941099   -1.74964499
 H          1.33020604   -0.11007100   -1.69156396
 C         -1.84077406   -0.18128601   -0.31396401
 C         -2.58943105    0.42798901    0.72004497
 C         -2.46872997   -1.17789304   -1.09673905
 C         -3.90115094    0.04077700    0.96566600
 H         -2.12150788    1.17568898    1.35233295
 C         -3.78383493   -1.55177796   -0.85200101
 H         -1.93380594   -1.64199495   -1.92113495
 C         -4.50310183   -0.94710201    0.18231700
 H         -4.45729780    0.50922698    1.77551401
 H         -4.25332403   -2.31284499   -1.47254300
 H         -5.53320217   -1.24332595    0.37490800
Cl          2.00545597   -1.49862599    1.13217497
 H          1.06038797   -1.03107595   -0.16679300
 H          3.88009191   -0.91832101    0.24569100
Cl          4.97690916   -0.50674701   -0.38163099
