100
title
 C         -1.95262396    1.69141996    2.26021194
 C         -2.28308010    2.45299292    0.97918397
 C         -1.41883695    3.71185899    0.88962501
 C          0.37729499    2.70090795    2.13031006
 C         -0.44935700    1.43289804    2.36449790
 H         -1.56147897    4.20575523   -0.08376400
 H         -2.01942611    1.82762098    0.11359400
 H         -2.26440811    2.30723095    3.11509609
 H          0.20746700    3.37462711    2.98317695
 H         -0.17764001    0.68539101    1.60638106
 O         -0.04841200    3.35998988    0.92099398
 O         -1.77568901    4.57285500    1.92568600
 O         -3.64534807    2.82535195    0.92152500
 O         -2.65939498    0.45829701    2.26610994
 O         -0.15407500    0.94346100    3.66619992
 C          1.88790298    2.43962908    1.98898101
 H          2.17711902    1.90594196    2.92087293
 H          2.36777496    3.44298697    2.07398200
 O          2.26210809    1.79471803    0.83904499
 C         -4.43789005    1.98357904    0.10563300
 H         -4.09880304    1.99896204   -0.94138199
 H         -4.43091393    0.94792402    0.46389899
 H         -5.45874310    2.37472606    0.14780501
 C         -3.35600400    0.19287600    3.46726894
 H         -2.68213606    0.18641600    4.33370209
 H         -4.15338802    0.93025202    3.64236498
 H         -3.80507112   -0.79758197    3.35487103
 C          0.31231201   -0.39063901    3.70193791
 H         -0.41237801   -1.08287001    3.25300288
 H          1.27739596   -0.50270098    3.18879008
 H          0.44270900   -0.64874798    4.75762701
 C          4.03531122   -1.37735701   -1.27300704
 C          3.26246095   -0.10329800   -0.92348599
 C          1.98473299   -0.41327801   -0.20405200
 C          2.70714402   -2.59512305    0.48740801
 C          4.10616493   -2.24949598   -0.01728600
 H          1.18939805    0.30764800   -0.15448000
 H          3.83070111    0.46609199   -0.16529700
 H          3.50612903   -1.91110802   -2.07412696
 H          2.20399189   -3.22574711   -0.25423399
 H          4.64601803   -1.69625902    0.76206702
 O          1.86282396   -1.40723395    0.60528302
 O         -0.36368901   -0.42597100   -3.87355304
 O          2.95775294    0.74835199   -1.99965203
 O          5.34167480   -1.02639902   -1.67669702
 O          4.75388288   -3.47142696   -0.30167699
 C          2.67131591   -3.29255199    1.82668602
 H          3.12671709   -4.28741407    1.70032406
 H          1.62130594   -3.43871903    2.12806010
 O          3.36975598   -2.52243304    2.77116609
 S         -0.22726800   -0.43056601   -2.41030192
 O         -0.25155401    0.92247200   -1.78259802
 O          0.91882598   -1.26650596   -1.90868104
 C         -1.69043100   -1.24197996   -1.75687003
 C         -2.91477203   -1.04821002   -2.38731790
 C         -1.60024905   -1.98514199   -0.58385003
 C         -4.06521416   -1.59382200   -1.81911600
 H         -2.96603298   -0.48300800   -3.31273794
 C         -2.75582290   -2.53034902   -0.03206300
 H         -0.63745201   -2.13129997   -0.10698200
 C         -3.99330902   -2.33517098   -0.64246303
 H         -4.89330578   -2.75574803   -0.20589000
 C          4.05612421    1.50534499   -2.50066590
 H          4.68365002    1.88001299   -1.68248200
 H          4.67365885    0.91284400   -3.18153811
 H          3.62397099    2.35200691   -3.03939509
 C          5.82294989   -1.76461196   -2.78824091
 H          5.83187008   -2.84101701   -2.58322811
 H          5.21663094   -1.57421994   -3.68574309
 H          6.84449816   -1.42113602   -2.97099900
 C          5.95405293   -3.67304993    0.42900899
 H          6.70270014   -2.91002703    0.18101300
 H          5.76986599   -3.65824389    1.51164603
 H          6.33238077   -4.65710497    0.14133000
 C          3.37280798   -3.11976099    4.05140877
 H          3.93358803   -2.45599198    4.71340322
 H          2.35097098   -3.23891997    4.44126606
 H          3.85877109   -4.10690212    4.03242111
 C         -1.18806005    5.85825586    1.82079196
 H         -1.59680295    6.45992184    2.63579202
 H         -0.09608300    5.81345606    1.91484106
 H         -1.44430101    6.32989788    0.86049700
Na          1.23196602    2.58347797   -1.01396298
 O          2.46762609    4.50313282   -1.54985499
 C          2.31778193    5.58076906   -2.45120692
 H          3.23279190    5.73168087   -3.04234600
 H          1.49235404    5.33364201   -3.12344694
 H          2.08413196    6.51389122   -1.91807497
 C          3.52015710    4.70979881   -0.62247902
 H          3.33925796    5.61033106   -0.01787400
 H          3.54437089    3.82796192    0.02451500
 H          4.48323584    4.81927681   -1.14243102
 C         -5.40311098   -1.31096399   -2.44381595
 F         -5.91063786   -0.14090399   -1.99982500
 F         -6.30516911   -2.26442695   -2.15456891
 F         -5.32001400   -1.21830201   -3.78181195
 C         -2.67271590   -3.37595892    1.20792198
 F         -1.54023302   -3.15026903    1.90046597
 F         -2.69789791   -4.69004822    0.91279000
 F         -3.70881796   -3.14467502    2.03699899
