29
title
 C         -2.50917602    0.90591300    0.28744501
 C         -1.26366103    0.82695001   -0.32604900
 C         -0.67462701   -0.41910401   -0.60267699
 C         -1.32627296   -1.59942603   -0.21819501
 C         -2.57476091   -1.52299500    0.39451399
 C         -3.16368794   -0.27687001    0.63585699
 H         -2.94780898    1.87858903    0.48313701
 H         -0.86770898   -2.55863690   -0.43329400
 H         -3.09466004   -2.43270493    0.67612600
 H         -4.13890696   -0.22518501    1.10994196
 C          0.62266302   -0.37448499   -1.28378201
 O          1.22937799   -1.58110499   -1.43067706
 H          0.62941903    0.24734201   -2.18254089
 O         -0.59784597    1.95981205   -0.70083803
 C          0.75969899    2.10032892   -0.23372900
 H          0.73541301    2.47295594    0.79578900
 H          1.18709600    2.87898397   -0.86599398
 C          1.63959301    0.84623301   -0.32946700
 C          1.98487496    0.10082400    0.82480800
 H          2.47170591    0.96228600   -1.02349603
 C          1.10151005    0.02433900    2.00336289
 H          1.62187004   -0.34546500    2.88911700
 H          0.57616299    0.95488697    2.22612596
 H          0.31669101   -0.71585202    1.74895501
 C          3.13323998   -0.82670099    0.76626498
 H          3.67253494   -0.85208499    1.71893704
 H          2.72159910   -1.84087396    0.61717403
 H          3.82306695   -0.61118698   -0.05132000
 H          1.86490202   -1.55275905   -2.16666889
