29
title
 C         -2.73593307   -1.20430195    0.05174300
 C         -1.41413605   -0.86579299   -0.21105801
 C         -1.01020503    0.47743899   -0.27462500
 C         -1.93659902    1.49696100   -0.01944200
 C         -3.26203799    1.16237605    0.24125300
 C         -3.65958905   -0.17961501    0.26551500
 H         -3.02251101   -2.24962807    0.09070500
 H         -1.61970901    2.53260708   -0.05921400
 H         -3.99058104    1.94706094    0.41648099
 H         -4.69651985   -0.43089601    0.46610999
 C          0.39241999    0.73466599   -0.64304501
 O          0.75230700    2.03773308   -0.52396798
 H          0.72588700    0.23854201   -1.55579305
 O         -0.46331799   -1.82870698   -0.41792899
 C          0.65722799   -1.74221897    0.48369199
 H          1.38323498   -2.45561099    0.09528700
 H          0.34127599   -2.07859206    1.47786295
 C          1.26138401   -0.34083900    0.63931298
 C          2.60615206   -0.10586600    0.29332501
 H          0.93798602    0.19271401    1.53180206
 C          3.30719805   -0.86721200   -0.76366800
 H          4.11485815   -1.44917595   -0.29069000
 H          2.67245102   -1.55248201   -1.32562399
 H          3.81474209   -0.17763300   -1.45000601
 C          3.31592107    1.03044605    0.92407399
 H          3.49140501    0.80209899    1.98576796
 H          4.27004910    1.26165295    0.44666100
 H          2.66477108    1.91744101    0.92775899
 H          1.46992695    2.25343800   -1.14438903
