81
title
 C          0.28995699    2.28061008    1.11416900
 C         -1.10306501    2.41654396    1.23517501
 C         -1.76821697    3.38447499    0.47023499
 C         -1.05030096    4.18014479   -0.41512400
 C          0.32975501    4.04776382   -0.54933703
 C         -1.86419201    1.59148598    2.22733593
 C         -2.25999689    0.24787401    1.99911797
 C         -2.19806194    2.21723700    3.43803000
 C         -2.96902704   -0.40534100    3.02238488
 C         -2.89827800    1.54575598    4.43844414
 C         -3.28262401    0.22460701    4.22727299
 H         -3.13753605    2.05124402    5.36990404
 H         -3.83028293   -0.31994301    4.99183702
 P         -1.89318001   -0.59197801    0.36496300
Pd          0.19760300   -0.16788299   -0.42761201
 C          0.98703402    3.10453796    0.23571999
 C          1.31530702   -1.55965304   -2.06816006
 F          0.70866799   -2.68560696   -1.57718098
 F          2.50174999   -2.02406192   -2.48636198
 F          0.63726598   -1.11914098   -3.12819910
 O          2.05330110    0.01405700   -1.39748895
 C          3.25659990   -0.13624400   -0.77666402
 C          4.42746878    0.00166500   -1.53683102
 C          3.37863111   -0.39310700    0.59592098
 C          5.67827702   -0.06775300   -0.93905097
 H          4.33942318    0.17791399   -2.60425711
 C          4.62828922   -0.48361099    1.19772506
 H          2.47413397   -0.53142899    1.18401206
 C          5.81636381   -0.30333599    0.45028701
 H          6.55491495    0.05743200   -1.56322002
 H          4.67470217   -0.68873000    2.26059699
 H         -1.88928103    3.24767900    3.59194803
 H         -3.29312491   -1.43027306    2.88748908
 C         -2.32151294   -2.39643788    0.69071400
 C         -2.45658398   -3.21573997   -0.61303401
 C         -1.25446701   -3.03526998    1.60973895
 H         -3.29694390   -2.43219209    1.19509304
 C         -2.75826693   -4.69611216   -0.31595001
 H         -1.52893102   -3.13780808   -1.18896604
 H         -3.25571299   -2.80907989   -1.24075401
 C         -1.56359398   -4.51262903    1.90400195
 H         -0.27950901   -2.95943809    1.11088896
 H         -1.16670203   -2.47731400    2.54935908
 C         -1.70625305   -5.32312679    0.60864502
 H         -2.81736493   -5.25191879   -1.26046705
 H         -3.74907207   -4.77675819    0.15642700
 H         -0.77105600   -4.93482399    2.53504705
 H         -2.49647808   -4.58496618    2.48367000
 H         -1.97035396   -6.36405897    0.83527303
 H         -0.73688900   -5.34924316    0.09032300
 C         -3.29807591    0.12873100   -0.68035001
 C         -3.06026196   -0.01399900   -2.19872308
 C         -4.72125387   -0.31439999   -0.28734601
 H         -3.21432209    1.20099795   -0.45251799
 C         -4.12732410    0.75803798   -2.99391389
 H         -3.09145403   -1.07139099   -2.49164391
 H         -2.05625606    0.34685400   -2.44924593
 C         -5.78171682    0.45702800   -1.09502494
 H         -4.84531021   -1.38901699   -0.47902000
 H         -4.88663006   -0.16282900    0.78635001
 C         -5.54942179    0.32408899   -2.60749292
 H         -3.96356106    0.61427301   -4.06942892
 H         -4.01172590    1.83516002   -2.80180407
 H         -6.78438377    0.09862400   -0.82806498
 H         -5.74504995    1.52014899   -0.81454402
 H         -6.29197693    0.91539401   -3.15831208
 H         -5.70103788   -0.72424400   -2.90547800
 H          0.84423602    1.58131599    1.73056996
 H         -2.83979988    3.53078103    0.55376399
 F          1.01053202    4.82291698   -1.40167904
 F          2.31672096    2.99124599    0.11470300
 F         -1.68020999    5.10316086   -1.16011202
 N          7.06753206   -0.34500101    1.05723906
 C          7.17670298   -0.80627400    2.42990088
 C          8.25922298   -0.37761900    0.22735199
 H          6.59570599   -0.16738200    3.10585809
 H          6.83128881   -1.84465599    2.56383204
 H          8.22123432   -0.75037199    2.74339890
 H          8.31828308    0.51366699   -0.40866300
 H          9.14208698   -0.38058800    0.87002802
 H          8.30433369   -1.26443398   -0.42588100
