124
title
Pd         -0.64507997   -0.74364102    0.46611300
 C         -1.01300800   -2.61726809    1.97868800
 F          0.06330100   -3.29788589    1.46986103
 F         -1.80717397   -3.62397194    2.39160609
 F         -0.64450997   -1.93717098    3.07417107
 O         -2.38159895   -1.65493906    1.30721998
 C         -3.29594803   -2.40892100    0.62647903
 C         -4.45330381   -2.81308389    1.31086099
 C         -3.11889505   -2.77090597   -0.71609497
 C         -5.43145704   -3.54955602    0.64622599
 H         -4.56455517   -2.53790212    2.35494995
 C         -4.09706593   -3.52306294   -1.36767197
 H         -2.21608901   -2.45085907   -1.22754896
 C         -5.25807524   -3.91172791   -0.69392300
 H         -6.32952118   -3.85111189    1.17936397
 H         -3.95323205   -3.80070710   -2.40894198
 H         -6.02000713   -4.49197292   -1.20688701
 P          1.48913598   -0.06181100   -0.09683800
 C          1.34566498    1.73154795   -0.69163400
 C          2.46864104    2.44972205   -1.18737698
 C          0.09925900    2.41326189   -0.62096298
 C          2.39578390    3.80617404   -1.48756301
 O          3.61879992    1.73542500   -1.39191794
 C          0.04695100    3.79271007   -0.96953303
 C         -1.26314795    1.81931603   -0.30295300
 H          3.26616001    4.34803200   -1.83671606
 C          1.18575299    4.48291016   -1.36637700
 C          4.79475021    2.42157412   -1.78533995
 O         -1.18918598    4.38581705   -0.90814501
 C         -1.88655198    2.04049993    0.96162897
 C         -2.06682491    1.35513997   -1.38410497
 H          1.14540100    5.53686285   -1.61378503
 H          4.67577410    2.89780211   -2.76716495
 H          5.57691717    1.66261101   -1.84762800
 H          5.08557320    3.18011999   -1.04693794
 C         -1.30561805    5.74977398   -1.27595198
 C         -3.23853588    1.73368299    1.11623704
 C         -1.15352702    2.65247989    2.15419507
 C         -3.42138696    1.06824398   -1.16462600
 C         -1.55283999    1.27274001   -2.82250309
 H         -2.36336088    5.99566889   -1.16771603
 H         -0.71419799    6.40040398   -0.61755103
 H         -0.99892199    5.91553307   -2.31754494
 C         -4.03465986    1.25109100    0.07259300
 H         -3.69987893    1.88792801    2.08863211
 H         -0.08672600    2.66785789    1.91674304
 C         -1.33863199    1.83281600    3.44746590
 C         -1.59049797    4.11188793    2.40289903
 H         -4.01363897    0.71255702   -2.00042510
 H         -0.46524400    1.38056695   -2.80418110
 C         -1.87205005   -0.07176000   -3.50285006
 C         -2.10957694    2.43776798   -3.66909790
 C         -5.52245903    1.01270700    0.31182900
 H         -2.35863805    1.92891395    3.83851099
 H         -0.65805000    2.19744992    4.22676277
 H         -1.14611101    0.76881403    3.28552198
 H         -1.43486905    4.73191309    1.51708806
 H         -1.02214599    4.54342794    3.23655391
 H         -2.65466809    4.16065598    2.66415310
 H         -1.50466299   -0.91445202   -2.90859509
 H         -1.40156102   -0.11644500   -4.49273491
 H         -2.94929290   -0.21160300   -3.64713502
 H         -3.19987512    2.36699700   -3.76339602
 H         -1.68250299    2.41768789   -4.67966509
 H         -1.87726796    3.40410399   -3.21304202
 H         -5.60958004    0.49838200    1.27981699
 C         -6.20029116    0.12451000   -0.74089402
 C         -6.26870012    2.35885692    0.43668601
 H         -6.24257708    0.62083697   -1.71869004
 H         -7.23329401   -0.08739400   -0.44179299
 H         -5.68087912   -0.83076501   -0.86218798
 H         -5.83686876    2.98841596    1.22214305
 H         -7.32722902    2.19590902    0.67391002
 H         -6.21447420    2.91755009   -0.50593603
 H          5.60414791   -1.43344700    2.31982493
 C          5.03768206   -0.86530799    3.07134509
 C          3.64937901   -1.49946594    3.28055692
 C          4.86170101    0.59433001    2.61265898
 H          5.61802006   -0.90255398    4.00391722
 C          2.86096311   -1.47360396    1.95140696
 H          3.76148891   -2.54495597    3.59793806
 C          2.87302899   -0.71129000    4.35231781
 C          4.07425404    0.63901401    1.27990794
 H          5.84735203    1.05123901    2.44673991
 C          4.09778214    1.38488197    3.69074988
 C          2.67912507   -0.01509800    1.44503498
 H          1.88441098   -1.94086206    2.09533405
 H          3.39662504   -2.07748199    1.21104598
 H          1.88838601   -1.16897404    4.51565409
 H          3.40815902   -0.74391901    5.31188822
 C          2.70947003    0.74746501    3.88443589
 H          4.65548897    0.13921900    0.50182599
 H          3.95866203    1.68382800    0.97674298
 H          4.65671015    1.37857401    4.63703203
 H          3.99364591    2.43605089    3.38643289
 C          1.93303204    0.77882499    2.54886103
 H          2.13932109    1.31497896    4.63239479
 H          1.80764997    1.82019603    2.22809196
 H          0.93318498    0.35916999    2.69173694
 C          4.22270298   -2.25366592   -2.71877909
 C          3.79647303   -1.33952200   -1.54447198
 H          5.31666279   -2.35584903   -2.69848800
 C          3.78634691   -1.61954796   -4.05384588
 C          3.56895208   -3.63893700   -2.56571102
 C          2.25698996   -1.14637196   -1.52903903
 H          4.29792309   -0.37599301   -1.63813698
 H          4.13526297   -1.79622996   -0.60923898
 C          2.25370908   -1.46247101   -4.06066418
 H          4.10812998   -2.24800205   -4.89610291
 H          4.26766777   -0.63969398   -4.18297005
 C          2.03797412   -3.47224998   -2.57077789
 H          3.89588594   -4.10967302   -1.62807095
 H          3.88441110   -4.30159187   -3.38391805
 C          1.82403505   -0.54677200   -2.89212799
 C          1.60888600   -2.55630994   -1.40332198
 H          1.93228698   -1.00043404   -5.00422621
 C          1.59429002   -2.84576607   -3.90732408
 H          1.55644703   -4.45083284   -2.44144702
 H          0.73688000   -0.42501500   -2.91066909
 H          2.26740694    0.44453099   -3.02748799
 H          0.51771802   -2.45544195   -1.38626897
 H          1.88610601   -3.01776791   -0.44901001
 H          1.87853098   -3.49687004   -4.74603081
 H          0.50029403   -2.74809599   -3.93440199
