142
title
Pd          0.80703998    0.71085799   -0.62171799
 C          0.25734299    1.03336203   -2.95439601
 F          1.57174301    1.16607404   -3.31631804
 F         -0.36924499    1.76953304   -3.88943195
 F         -0.14185700   -0.23456299   -3.12704396
 O         -0.79069299    1.68128705   -1.60120201
 C         -1.01300502    3.02349496   -1.69504297
 C         -2.22258711    3.44254398   -2.27348304
 C         -0.09622800    3.97584701   -1.22799695
 C         -2.51487708    4.80196524   -2.35919499
 H         -2.91531491    2.68677306   -2.62883306
 C         -0.39289099    5.33495808   -1.33333695
 H          0.83645600    3.63069201   -0.79146099
 C         -1.60195804    5.75470781   -1.89402199
 H         -3.45692205    5.12050200   -2.79835200
 H          0.32244301    6.06897020   -0.97061598
 H         -1.83127999    6.81403589   -1.96878600
 P          2.67700911   -0.49868000    0.01192400
 C          2.37219691   -1.12910998    1.77101505
 C          3.36976504   -1.82480705    2.51022506
 C          1.10861099   -0.95238799    2.40537691
 C          3.11968493   -2.39836407    3.75996399
 O          4.61156702   -1.88405704    1.94663501
 C          0.88763797   -1.52116001    3.67723489
 C         -0.07747500   -0.10841400    1.95629704
 H          3.89497399   -2.93999290    4.28739786
 C          1.86442900   -2.25004411    4.33775187
 C          5.63627195   -2.62495708    2.59126806
 C         -1.26839602   -0.72516298    1.45747006
 C         -0.11993100    1.23671806    2.40828300
 H          1.66042805   -2.68436289    5.31268692
 H          5.87739992   -2.20621395    3.57624102
 H          6.51130199   -2.54624701    1.94363797
 H          5.36136198   -3.68147707    2.70089602
 C         -2.45565701    0.03936900    1.36967504
 C         -1.21342301   -2.21781111    1.09128499
 C         -1.31673896    1.94556403    2.29745293
 C          1.04323399    1.91148996    3.13591099
 C         -2.48819494    1.38857400    1.79357600
 H         -0.15017401   -2.45760202    1.04842806
 C         -1.78583503   -2.60213900   -0.29069701
 C         -1.80806899   -3.13689303    2.18131304
 H         -1.34306896    2.96901703    2.65546894
 H          1.93865895    1.30531204    2.98353100
 C          1.34665406    3.32547688    2.60666895
 C          0.78070199    1.95924604    4.65655708
 C         -3.77681899    2.21148610    1.81932902
 H         -2.86726499   -2.75703502   -0.26321501
 H         -1.33681500   -3.54963803   -0.61139101
 H         -1.56482506   -1.84758699   -1.05071294
 H         -1.28803897   -3.01940393    3.13605404
 H         -1.70394695   -4.18462992    1.87237406
 H         -2.86817789   -2.94293809    2.35539103
 H          1.49435997    3.32125902    1.52217805
 H          2.25587010    3.71701789    3.07876492
 H          0.53692698    4.02966976    2.82881999
 H         -0.11399200    2.55109000    4.88362217
 H          0.63453299    0.95582002    5.06850195
 H         -4.48125505    1.76318300    1.11154401
 C         -3.58614612    3.67588091    1.38766599
 C         -4.42439222    2.14012694    3.21994400
 H         -2.98804402    4.24422598    2.10947490
 H         -4.56290913    4.16984415    1.32186103
 H         -3.09966493    3.74879909    0.41098100
 H         -4.60535717    1.10633504    3.52828312
 H         -5.38113403    2.67667198    3.22951102
 H         -3.77150798    2.60336089    3.97000408
 H          5.36217022   -3.31294799   -3.08372402
 C          4.37558889   -3.79774690   -3.07117295
 C          3.28893304   -2.80084300   -3.51445293
 C          4.04795980   -4.30272388   -1.65342104
 H          4.42728901   -4.64362097   -3.77104092
 C          3.25506210   -1.60494602   -2.53716707
 H          3.51868796   -2.42154288   -4.51926088
 C          1.91400301   -3.49517107   -3.52269197
 C          4.01059389   -3.11378503   -0.66114098
 H          4.82638407   -5.00394487   -1.32175899
 C          2.68161011   -5.01332188   -1.66655695
 C          2.93764710   -2.07820511   -1.09034097
 H          2.50504804   -0.88551700   -2.87017202
 H          4.22404909   -1.09534597   -2.57309604
 H          1.13922203   -2.78871608   -3.84869289
 H          1.91254199   -4.33054686   -4.23679304
 C          1.60105705   -4.00685501   -2.10395503
 H          5.00143814   -2.65555191   -0.60985303
 H          3.78034496   -3.49594998    0.33817101
 H          2.70568800   -5.87148094   -2.35271001
 H          2.45015407   -5.40805483   -0.66712600
 C          1.57587898   -2.81875896   -1.11764801
 H          0.61488700   -4.49037218   -2.09355688
 H          1.34718895   -3.19338489   -0.11265100
 H          0.78049898   -2.12032795   -1.39423299
 C          6.77801180    1.00367606   -0.31166700
 C          5.64437819   -0.05149100   -0.28669199
 H          7.72963810    0.48420200   -0.49063599
 C          6.83606720    1.73868597    1.04123998
 C          6.52076101    2.01945090   -1.43977106
 C          4.27303696    0.62436098   -0.02021800
 H          5.85621881   -0.79160303    0.48457000
 H          5.63525915   -0.57548702   -1.24787498
 C          5.48966312    2.44422603    1.29106605
 H          7.65468788    2.47199297    1.03900898
 H          7.04670095    1.02669895    1.85189199
 C          5.17229414    2.71814299   -1.18477094
 H          6.50502110    1.50892401   -2.41276503
 H          7.33319521    2.75858903   -1.47836006
 C          4.35680819    1.39305305    1.32336497
 C          4.03899288    1.66930497   -1.15148699
 H          5.51563597    2.96182895    2.25978589
 C          5.22411585    3.46067905    0.16389699
 H          4.96322107    3.43119788   -1.99341404
 H          3.40500808    1.89733696    1.51733696
 H          4.53198814    0.69437301    2.14867902
 H          3.07276511    2.16402411   -0.99727398
 H          3.97148991    1.16855097   -2.12334609
 H          6.01413107    4.22455597    0.14881600
 H          4.27528906    3.98488808    0.34349999
 H          1.62980998    2.41902089    5.17724085
 H         -0.07521600   -1.36353397    4.15085077
 C         -3.74034500   -0.53958797    0.84681302
 C         -4.67537117   -1.15628397    1.67930496
 C         -4.11692286   -0.40419900   -0.49430999
 C         -5.89171600   -1.64049494    1.20313704
 C         -5.33168983   -0.88746101   -0.96847999
 C         -6.25474310   -1.52461195   -0.13762300
 C         -7.57800722   -2.02495909   -0.66554803
 C         -8.62336540   -0.90339297   -0.83503002
 H         -7.96639776   -2.78861308    0.01567800
 H         -7.41204214   -2.50839901   -1.63551700
 C         -9.96144009   -1.42048204   -1.37797403
 H         -8.78321266   -0.40994301    0.13335399
 H         -8.22061062   -0.14009701   -1.51363397
 C        -11.00196934   -0.30993900   -1.55682302
 H         -9.79101086   -1.92261803   -2.34087706
 H        -10.35633183   -2.18871903   -0.69814998
 H        -11.94512081   -0.70682901   -1.94916499
 H        -11.21992207    0.18643200   -0.60328799
 H        -10.64597893    0.45684299   -2.25569701
 F         -3.28845811    0.19147100   -1.36665595
 F         -5.62330389   -0.73231101   -2.27592111
 F         -6.73213387   -2.23226094    2.07549191
 F         -4.41514397   -1.29506600    2.99702907
