89
title
 C          1.37603104    2.89814401    0.26978701
 C          0.10013600    2.54296589   -0.25860399
 C         -0.04491500    2.41196394   -1.66617000
 C          1.07448602    2.55576706   -2.50022197
 C          2.32201600    2.85406899   -1.96526599
 H          0.96765399    2.44869399   -3.57315612
 C         -1.09534299    2.52651501    0.65496302
 C         -1.85876799    1.38487899    1.01196802
 C         -1.45495999    3.77453089    1.20045805
 C         -2.94669890    1.56177998    1.88985598
 C         -2.53793502    3.92552209    2.06027293
 C         -3.29335189    2.80698490    2.40800405
 H         -2.78461695    4.90657377    2.45752311
 H         -4.14108276    2.89692998    3.08215499
 P         -1.44343400   -0.33352199    0.40080100
Pd          0.68744802   -0.47253999   -0.39822400
 C          2.47246504    3.03517699   -0.59534699
 H          3.45117903    3.26725793   -0.19138899
 C          1.41854799    2.03047991    2.56895804
 H          1.21416497    2.39050794    3.58451009
 H          0.60609800    1.37317705    2.26611304
 H          2.35032701    1.43692696    2.59089494
 C          2.60618210    4.05858803    2.04525495
 H          2.42761493    4.39879799    3.07202411
 H          3.60434508    3.58338404    2.02411509
 H          2.62547207    4.93463898    1.39099097
 C         -1.34605396    1.49375701   -3.52474308
 H         -2.36635208    1.15549195   -3.73719406
 H         -1.03604198    2.14266896   -4.36385822
 H         -0.69010198    0.62041801   -3.49361396
 C         -2.21717501    3.34197402   -2.25840902
 H         -1.87210095    4.10104513   -2.98350692
 H         -3.22666693    3.02761698   -2.54713511
 H         -2.27503204    3.80361700   -1.27245498
 C          1.64338803   -2.43232703   -1.42992604
 F          0.83825099   -3.24397206   -0.67567402
 F          2.74734211   -3.18276405   -1.58164406
 F          1.08698797   -2.25735211   -2.63042307
 O          2.56769991   -0.88805997   -1.24669302
 C          3.72201109   -0.99086398   -0.51827198
 C          4.92828989   -1.10907698   -1.22431505
 C          3.73234200   -0.95151198    0.88309699
 C          6.13530397   -1.15549302   -0.52993000
 H          4.89673519   -1.15254402   -2.30843401
 C          4.94548893   -1.01996303    1.56860495
 H          2.78506398   -0.86556101    1.40895402
 C          6.15061712   -1.11516798    0.86784601
 H          7.06818914   -1.23433900   -1.08226895
 H          4.94861698   -0.99124098    2.65537906
 H          7.09358215   -1.15977001    1.40564096
 H         -0.85589200    4.64004612    0.93551499
 H         -3.53453493    0.70332098    2.19422603
 C         -1.83787894   -1.40952301    1.90485406
 C         -1.69704401   -2.91535091    1.59103000
 C         -0.94095498   -1.03492296    3.10385609
 H         -2.88351798   -1.22849798    2.18921399
 C         -1.99975502   -3.78190708    2.82634592
 H         -0.67704302   -3.11741590    1.24395096
 H         -2.36759806   -3.20506096    0.77484202
 C         -1.23646605   -1.90601003    4.33656788
 H          0.10986100   -1.16497505    2.80821991
 H         -1.07042003    0.02188700    3.36205006
 C         -1.11039495   -3.40163207    4.01733017
 H         -1.86550999   -4.84098291    2.57139492
 H         -3.05651307   -3.66000199    3.10866189
 H         -0.55761898   -1.62933099    5.15371513
 H         -2.25587606   -1.69537103    4.69341993
 H         -1.36930799   -4.00447512    4.89723492
 H         -0.06284300   -3.63280606    3.77391195
 C         -2.82682610   -0.66153502   -0.85484600
 C         -2.46808410   -1.79470205   -1.84272003
 C         -4.24164391   -0.86840898   -0.27771801
 H         -2.82016611    0.28120199   -1.41814697
 C         -3.52562594   -1.93035197   -2.95167303
 H         -2.39001608   -2.75026298   -1.30752695
 H         -1.48177004   -1.60983002   -2.27947211
 C         -5.29023218   -0.99974102   -1.39736903
 H         -4.26657486   -1.77973795    0.33593199
 H         -4.51741409   -0.03428300    0.37589800
 C         -4.93606710   -2.12584996   -2.37824512
 H         -3.26145601   -2.76615405   -3.61234999
 H         -3.51412296   -1.02433300   -3.57573199
 H         -6.28115606   -1.17145002   -0.95694000
 H         -5.35253620   -0.04743100   -1.94477606
 H         -5.67561007   -2.17348790   -3.18795490
 H         -4.98402119   -3.09175301   -1.85335302
 H          3.18215394    2.95605803   -2.62177706
 N         -1.34028196    2.16691899   -2.22969699
 N          1.52167499    3.16868401    1.66003299
