67
title
 C         -0.41752899    2.75526595   -0.16965300
 C          0.97330499    2.80759907    0.03173900
 C          1.45924103    3.39517689    1.20922899
 C          0.58103001    3.89855599    2.17180610
 C         -0.79869503    3.83653212    1.96379101
 H          0.97648400    4.34765482    3.07916808
 C          1.92032003    2.33777809   -1.02967298
 C          2.21994305    0.97328299   -1.27818501
 C          2.53732491    3.32921100   -1.80830598
 C          3.11452389    0.67279798   -2.31941509
 C          3.42121291    3.00780702   -2.83681607
 C          3.70589709    1.66967201   -3.09592199
 H          3.87745905    3.79612494   -3.42937589
 H          4.38992310    1.39520395   -3.89460111
 P          1.49147797   -0.36838600   -0.20349000
Pd         -0.71890700   -0.09315700    0.26543999
 C         -1.29578400    3.27324295    0.78792202
 H         -2.36648107    3.22701693    0.61072600
 C         -2.19578695   -1.95094502    0.71013802
 F         -1.51766002   -2.72482610   -0.19725400
 F         -3.45017195   -2.42010307    0.60321200
 F         -1.75248504   -2.21569395    1.93781805
 O         -2.73374200   -0.22561200    0.86959398
 C         -3.79033589    0.14568301    0.08586600
 C         -5.06762505    0.13940500    0.66741699
 C         -3.62923598    0.56555599   -1.24278104
 C         -6.16534424    0.58001000   -0.06818200
 H         -5.17257404   -0.20158599    1.69247997
 C         -4.73891115    0.98757601   -1.97581005
 H         -2.63380098    0.54789102   -1.67984605
 C         -6.00815582    1.00299299   -1.39207399
 H         -7.15032578    0.58554697    0.39136299
 H         -4.60871983    1.31109095   -3.00533199
 H         -6.86840677    1.33939505   -1.96390104
 H          2.30158091    4.36989594   -1.60251403
 H          3.36756110   -0.35803100   -2.53636193
 H         -1.48200703    4.23294020    2.70976901
 H         -0.80711699    2.35919499   -1.10351706
 H          2.53297710    3.46217990    1.36636198
 C          2.59720492   -0.22481100    1.30759799
 C          2.11775208   -1.03072798    2.55225205
 C          4.09606218   -0.56774300    1.16489005
 H          2.52757907    0.84042197    1.55966496
 C          3.41111588   -1.37948096    3.34785008
 H          1.58230197   -1.94014597    2.26752496
 H          1.41293800   -0.43311700    3.13815594
 C          4.56088209   -0.63936597    2.62903094
 H          4.64396381    0.16818900    0.56719702
 H          4.23230505   -1.54771304    0.68883699
 H          3.33745003   -1.10256696    4.40465117
 H          3.59005499   -2.46111298    3.31744599
 H          4.66649723    0.37808001    3.02841210
 H          5.52967310   -1.13740396    2.74866104
 C          2.00163794   -1.95394397   -1.05212605
 C          1.77609599   -3.23268509   -0.20787100
 C          1.22422397   -2.21347690   -2.38156891
 H          3.07549000   -1.89702106   -1.26700902
 C          1.74218094   -4.34699488   -1.26661003
 H          0.81236303   -3.18719602    0.30865601
 H          2.55647707   -3.38168597    0.54581898
 C          0.90635598   -3.73545504   -2.40624309
 H          1.82495201   -1.91131794   -3.24553704
 H          0.30030200   -1.62594402   -2.41684008
 H          2.76231909   -4.56378603   -1.61215699
 H          1.32132900   -5.28289318   -0.88269597
 H          1.12299204   -4.18985510   -3.37882400
 H         -0.15864900   -3.89300299   -2.20477891
