78
title
 C          1.92752194   -2.06539297   -0.47027701
 C          2.56460404   -1.42223299   -1.58815300
 C          3.96089792   -1.70648801   -1.55034304
 C          4.20999289   -2.51627493   -0.40384299
 C          2.96504092   -2.74142289    0.25658500
 H          2.06398106   -0.80588001   -2.32289410
 H          4.70488024   -1.33492899   -2.24354291
 H          5.17693090   -2.87152004   -0.06996200
 H          2.83859396   -3.30827093    1.16887796
Fe          3.36277795   -0.70280099    0.17319401
 C          4.08492708    0.00575500    1.99095500
 C          4.79866886    0.60824698    0.91414303
 C          2.70573997    0.33140999    1.83487201
 H          4.50623178   -0.62557101    2.76305604
 C          3.85973501    1.31347406    0.10325400
 H          5.86033010    0.51854300    0.72095799
 C          2.54705906    1.15247703    0.66591102
 H          1.90105402    0.00168600    2.47781205
 H          4.10479212    1.85502398   -0.79991198
 P          0.92788303    1.90558696    0.18355200
 P          0.11215200   -1.97693598   -0.18812600
Pd         -0.80727899    0.40225300   -0.23388501
 C         -2.64574003    1.73711002   -1.16873705
 O         -2.90549111   -0.01401900   -0.82802200
 F         -2.24292898    2.87469411   -0.50957400
 F         -3.96783996    1.96688402   -1.30678296
 F         -2.11502695    1.71915603   -2.39994407
 C         -3.85064793   -0.28015101    0.11095500
 C         -5.13840389   -0.64017397   -0.32278299
 C         -3.56551194   -0.24462900    1.48563194
 C         -6.11180210   -0.98896801    0.60945499
 H         -5.34710121   -0.64603198   -1.38788903
 C         -4.55569410   -0.57878000    2.41187501
 H         -2.56592488    0.04919900    1.79986000
 C         -5.82864189   -0.95713902    1.97990096
 H         -7.10199881   -1.27790904    0.26624000
 H         -4.32831907   -0.54704499    3.47461796
 H         -6.59547615   -1.22146297    2.70266390
 C         -0.40659401   -2.98794794   -1.71822202
 C         -1.90897596   -2.90984297   -2.03383207
 C          0.11092400   -4.43383980   -1.73546302
 H          0.11449900   -2.43753910   -2.51365805
 H         -2.26881504   -1.87821102   -2.03778410
 H         -2.09546995   -3.34680009   -3.02380204
 H         -2.51360011   -3.46996403   -1.31350195
 H          1.19121695   -4.48647022   -1.56471097
 H         -0.38462499   -5.05076599   -0.97711402
 H         -0.09609900   -4.89239788   -2.71115899
 C         -0.12243300   -3.14601398    1.28431797
 C         -1.58025503   -3.61649489    1.42216694
 C          0.32707399   -2.47209907    2.59150696
 H          0.51058000   -4.02525282    1.10625601
 H         -1.90040600   -4.23982906    0.58366299
 H         -1.68498194   -4.21715879    2.33487511
 H         -2.27384210   -2.77180910    1.50110698
 H          1.38168895   -2.18587804    2.57426190
 H         -0.26466501   -1.56967998    2.78738308
 H          0.17894100   -3.15853190    3.43514705
 C          1.47644997    3.05654502   -1.21927702
 C          0.49852201    4.21026516   -1.49131703
 C          1.70661497    2.25569797   -2.51288390
 H          2.43184304    3.49034095   -0.89785498
 H          0.34871599    4.85025215   -0.61771601
 H          0.90042001    4.83967018   -2.29569507
 H         -0.47858199    3.84201193   -1.81037998
 H          2.44618797    1.46017206   -2.38728595
 H          0.77204698    1.79665506   -2.85461307
 H          2.06363702    2.92530704   -3.30620289
 C          0.76339102    3.01166701    1.73212802
 C         -0.62699902    3.62729907    1.94311798
 C          1.87594700    4.06286478    1.87747502
 H          0.90592003    2.26978493    2.52934599
 H         -1.41183901    2.86731291    1.91741300
 H         -0.65824598    4.12056780    2.92349505
 H         -0.87030101    4.37967205    1.18719304
 H          2.87380004    3.62436700    1.77674901
 H          1.77784002    4.86381912    1.13634396
 H          1.81588495    4.52999783    2.86878204
