84
title
 C          2.33805394   -1.26635802    1.41817999
 C          1.66627395   -1.09152603    2.63584304
 C          3.19999504   -2.36282706    1.27128100
 C          1.86340904   -1.98408198    3.69117904
 H          0.97337198   -0.26279899    2.75252795
 C          3.39413309   -3.25725889    2.32449603
 H          3.71414900   -2.52505708    0.32786000
 C          2.72976589   -3.06750107    3.53866601
 H          1.32740700   -1.83765996    4.62474108
 H          4.06382513   -4.10402298    2.19591808
 H          2.88152194   -3.76542497    4.35800886
 C          3.51468706    1.13950002    0.49843299
 C          4.84562683    0.69021201    0.54911703
 C          3.24036407    2.46974611    0.84264398
 C          5.87482214    1.55689204    0.91469401
 H          5.08049202   -0.34211501    0.30653101
 C          4.27013683    3.33613396    1.21884799
 H          2.21486807    2.82386208    0.81233799
 C          5.58872509    2.88337994    1.25068295
 H          6.89957523    1.19541800    0.94417202
 H          4.03821707    4.36479282    1.48198199
 H          6.39135313    3.55720496    1.53898704
 C          2.58349800   -0.82077402   -1.47168398
 C          1.78469396   -1.89457095   -1.92235196
 C          3.53109503   -0.28933999   -2.35588193
 C          1.90525806   -2.38840199   -3.22077489
 C          3.67986107   -0.79534602   -3.64895892
 H          4.14273691    0.54793900   -2.03665709
 C          2.85707688   -1.83306003   -4.08045006
 H          1.26044500   -3.18482208   -3.57005811
 H          4.42136097   -0.36618799   -4.31644583
 H          2.94613290   -2.22037601   -5.09177208
 O          0.90354699   -2.38306808   -0.97499597
 C         -0.20007400   -3.15513611   -1.27161300
 C         -1.46739197   -2.67046404   -0.89392102
 C         -0.04515500   -4.43333101   -1.81960201
 P         -1.65723205   -1.04170799   -0.00733600
 C         -2.57737398   -3.49056005   -1.16227496
 C         -1.16487205   -5.22461224   -2.06706095
 H          0.95268399   -4.80239296   -2.03100610
 C         -1.89294803   -1.57088900    1.75048697
 C         -3.36842108   -0.55219400   -0.51702303
 C         -2.43734407   -4.74616623   -1.75171196
 H         -3.56896400   -3.13639903   -0.89954400
 H         -1.03906202   -6.21433020   -2.49737692
 C         -2.13320994   -0.55767298    2.69786310
 C         -1.78762197   -2.89509511    2.19749594
 C         -3.49574208    0.19588700   -1.69974601
 C         -4.52655888   -0.86713302    0.21204799
 H         -3.31676412   -5.35321617   -1.94682896
 C         -2.28384590   -0.86599302    4.04884720
 H         -2.20657897    0.47763199    2.37304902
 C         -1.92400205   -3.20043612    3.55485201
 H         -1.59723699   -3.69558311    1.49044704
 C         -4.75279999    0.59554899   -2.15456390
 H         -2.60706711    0.47980401   -2.25538397
 C         -5.78233290   -0.45573801   -0.23955500
 H         -4.44937181   -1.43398905    1.13484001
 C         -2.17608309   -2.19078493    4.48333120
 H         -2.47993493   -0.07062200    4.76338005
 H         -1.83523595   -4.23307514    3.88247991
 C         -5.89888382    0.27215201   -1.42539406
 H         -4.83364201    1.17363298   -3.07125306
 H         -6.66966009   -0.70727497    0.33590600
 H         -2.28721809   -2.43124795    5.53740597
 H         -6.87693119    0.59258097   -1.77470601
 P          2.09440589    0.01062400    0.10089400
Pd         -0.03474700    0.84342599   -0.26772100
 C          0.13728400    2.76629210   -1.78953803
 O         -1.38178003    2.49836707   -0.86396402
 F          1.50634098    2.77195597   -1.67307794
 F         -0.12879100    4.06118298   -2.02820802
 F         -0.17507300    2.04328799   -2.86947703
 C         -1.69096506    3.45672894    0.05057100
 C         -2.52656293    4.51484203   -0.34628001
 C         -1.24116194    3.38812494    1.37913001
 C         -2.92404604    5.47157001    0.58359200
 H         -2.85780692    4.55888987   -1.37872899
 C         -1.63172901    4.36340189    2.29842591
 H         -0.58791500    2.56496406    1.66220605
 C         -2.47671008    5.40446377    1.90806699
 H         -3.58049202    6.28020716    0.27226400
 H         -1.27819896    4.30467510    3.32495999
 H         -2.78524303    6.15766621    2.62776709
