73
title
 P         -0.93371999    1.45387900   -0.21632700
 C         -0.76173002    2.51915789    1.28271604
 C         -2.44618201    2.11504698   -1.05001903
 C         -0.17541300    3.79413009    1.27625597
 C         -1.24690604    2.00152397    2.49561596
 C         -3.28935289    3.07733989   -0.47426999
 C         -2.81283998    1.55200601   -2.28652000
 C         -0.08504100    4.53763914    2.45442104
 H          0.21851900    4.20615911    0.35205799
 C         -1.16451001    2.75048089    3.67065191
 H         -1.67779505    1.00361502    2.51773596
 C         -4.46361208    3.47055292   -1.12231505
 H         -3.03064990    3.52429700    0.48038900
 C         -3.97707009    1.95501995   -2.93663907
 H         -2.18004394    0.79389399   -2.74285889
 C         -0.58232099    4.01941681    3.65224290
 H          0.37514201    5.52226877    2.43594790
 H         -1.54471505    2.33662391    4.60074997
 C         -4.80977201    2.91543794   -2.35413194
 H         -5.10541105    4.21686506   -0.66103101
 H         -4.23993111    1.51360703   -3.89453197
 H         -0.50971699    4.59956598    4.56839705
 H         -5.72308779    3.22339892   -2.85595012
 C          2.86020398   -1.34395504   -1.40423405
 C          2.94882202    0.29859400    0.99353600
 C          2.21550298   -2.12934589   -2.37430692
 C          4.25232983   -1.44756997   -1.26417601
 C          3.70589709    1.47932804    0.95648003
 C          3.04117107   -0.53039098    2.12537599
 C          2.94785404   -2.98240089   -3.19829607
 H          1.13354003   -2.08193707   -2.46893406
 C          4.98328209   -2.31121492   -2.08409595
 H          4.76778078   -0.85833502   -0.51192099
 C          4.54257202    1.81801605    2.02298498
 H          3.64276004    2.14088297    0.09845200
 C          3.88600802   -0.19523799    3.18300295
 H          2.43719506   -1.43095601    2.17968702
 C          4.33471107   -3.07687211   -3.05384994
 H          2.43434000   -3.58477306   -3.94299006
 H          6.06090498   -2.38439107   -1.96175599
 C          4.63802481    0.98107702    3.13546395
 H          5.11898088    2.73868895    1.98165905
 H          3.94665790   -0.84789997    4.04983091
 H          4.90455818   -3.75033689   -3.68848395
 H          5.28876114    1.24718201    3.96425009
 P          1.80923104   -0.24150001   -0.35828501
Pd         -0.29984099   -0.82930201    0.33505699
 C         -0.31034401   -3.11492705    1.20075405
 O         -1.75173700   -2.09076095    1.36507702
 F          0.54373598   -3.48636103    0.19094799
 F         -0.98806101   -4.26007605    1.42031598
 F          0.38642299   -2.84816790    2.31401396
 C         -2.88755202   -2.53230691    0.75187701
 C         -3.82850289   -3.23137403    1.52514696
 C         -3.14891410   -2.27262902   -0.60099500
 C         -5.03268814   -3.63184190    0.95248997
 H         -3.60013890   -3.43614411    2.56627893
 C         -4.35444021   -2.68991590   -1.16723204
 H         -2.39985991   -1.74218094   -1.18470800
 C         -5.30120516   -3.36609602   -0.39502800
 H         -5.76386118   -4.16105318    1.55829895
 H         -4.55448723   -2.48149300   -2.21514606
 H         -6.23957205   -3.68738890   -0.83846098
 C          1.61766303    1.26812196   -1.42780006
 C          2.61954594    1.66121900   -2.32887411
 C          0.42260399    2.02286696   -1.35141206
 C          2.46030402    2.78761196   -3.13585997
 H          3.52693701    1.06997097   -2.41120911
 C          0.27606601    3.15175390   -2.17397594
 C          1.28558803    3.53665996   -3.05590892
 H          3.24646592    3.07160711   -3.83039093
 H         -0.64574701    3.72447205   -2.13587499
 H          1.14899898    4.41197300   -3.68548799
