82
title
 C         -0.88569897   -2.70208406   -0.30509600
 C          0.06599200   -2.94714189   -1.35535896
 C          0.55735499   -4.27697897   -1.22117698
 C         -0.07349800   -4.86622000   -0.08454300
 C         -0.96371299   -3.90396309    0.47758299
 H          0.37326801   -2.22545600   -2.10013890
 H          1.31121302   -4.74076700   -1.84444106
 H          0.11767100   -5.85736990    0.30761701
 H         -1.56524706   -4.03718185    1.36640000
Fe          0.96890402   -3.15166807    0.48829699
 C          1.74704301   -3.19120908    2.42068601
 C          2.73011899   -3.64500093    1.49110103
 C          1.37165105   -1.86741805    2.05119300
 H          1.32430303   -3.76584601    3.23496795
 C          2.96988511   -2.59754109    0.55366802
 H          3.18633795   -4.62686491    1.47436297
 C          2.12925005   -1.48222899    0.89099598
 H          0.62407601   -1.25985205    2.54240990
 H          3.64335990   -2.64280200   -0.29102501
 P          1.99240303    0.16072300    0.07959900
 P         -1.70629001   -1.08241999   -0.07436000
 C          2.99001908    1.20894003    1.24805200
 C          2.94069695    2.60633898    1.10703099
 C          3.78287292    0.66473901    2.27164602
 C          3.67299294    3.43391395    1.95827699
 H          2.32757998    3.04504704    0.32807800
 C          4.50804186    1.49661195    3.12889504
 H          3.83420897   -0.41079199    2.40672398
 C          4.45669508    2.88229990    2.97440791
 H          3.62265801    4.51218891    1.83120203
 H          5.11363077    1.05707395    3.91751099
 H          5.02008820    3.52824211    3.64271498
 C          3.12618303   -0.03479600   -1.37290597
 C          4.52229500   -0.09692400   -1.23934996
 C          2.56452799   -0.12843700   -2.65483308
 C          5.33433485   -0.26587901   -2.36208105
 H          4.97804594   -0.00309400   -0.25782299
 C          3.37663794   -0.30338600   -3.77739811
 H          1.48777497   -0.04054300   -2.77161193
 C          4.76316500   -0.37407100   -3.63269901
 H          6.41413879   -0.30755401   -2.24448395
 H          2.92553496   -0.37023401   -4.76393080
 H          5.39738178   -0.50149399   -4.50604391
 C         -3.08051300   -1.16734004   -1.31039000
 C         -3.70599604    0.03795600   -1.67279398
 C         -3.51179194   -2.36326408   -1.90626204
 C         -4.75529814    0.03945300   -2.59315491
 H         -3.35425496    0.97594899   -1.25274301
 C         -4.55741692   -2.35617495   -2.83186007
 H         -3.02712107   -3.30148697   -1.65218699
 C         -5.18448782   -1.15623796   -3.17332101
 H         -5.22952223    0.97874999   -2.86529589
 H         -4.88099384   -3.28955007   -3.28576994
 H         -5.99783516   -1.15236402   -3.89429593
 C         -2.59637499   -1.29205096    1.53810203
 C         -3.67825294   -2.17111492    1.70829499
 C         -2.17550111   -0.52132702    2.63221312
 C         -4.30646515   -2.29066992    2.94859600
 H         -4.03924322   -2.75414491    0.86586601
 C         -2.80227089   -0.64197600    3.87491703
 H         -1.36182106    0.18721500    2.49932194
 C         -3.86697507   -1.52968597    4.03552914
 H         -5.14419699   -2.97344303    3.06528902
 H         -2.46537709   -0.03494600    4.71110678
 H         -4.36071205   -1.62106097    4.99938822
Pd         -0.17530900    0.85781002   -0.37258101
 C         -0.05648600    2.83991194   -1.82310998
 O         -1.56309998    2.52489805   -0.89541900
 F          1.31850398    2.90369201   -1.69976199
 F         -0.36613101    4.12784815   -2.04729199
 F         -0.33761200    2.12659788   -2.91813588
 C         -1.86957598    3.46600509    0.03974500
 C         -2.77599096    4.48050690   -0.31267399
 C         -1.34345400    3.42407703    1.34006500
 C         -3.17059803    5.41868401    0.63752598
 H         -3.16119909    4.50728989   -1.32713497
 C         -1.73071003    4.38209391    2.27812791
 H         -0.63362801    2.63807607    1.58832705
 C         -2.64782190    5.37803411    1.93485701
 H         -3.88209605    6.19297981    0.36200300
 H         -1.31740904    4.34512615    3.28296089
 H         -2.95283699    6.11740780    2.67015290
