90
title
 C          1.66979301    2.32671189    0.39503601
 C          2.42336202    1.67732096    1.43773997
 C          3.79475093    2.04515290    1.33094394
 C          3.92345691    2.91136289    0.20845100
 C          2.62789512    3.08892298   -0.36194700
 H          2.02115989    0.98880398    2.16154599
 H          4.59891415    1.69197500    1.96407104
 H          4.84399891    3.33623290   -0.17183100
 H          2.42945290    3.68329692   -1.24067998
Fe          3.14107990    1.07397294   -0.39114100
 C          3.57778096    0.49343899   -2.33896303
 C          4.58033609    0.00842600   -1.45049000
 C          2.32883501   -0.04571800   -1.91588700
 H          3.72739291    1.18727601   -3.15643311
 C          3.94738102   -0.83853698   -0.49222201
 H          5.63202381    0.26582199   -1.46891105
 C          2.53604698   -0.89547700   -0.77326000
 H          1.36810696    0.16836999   -2.35715389
 H          4.46243906   -1.32525098    0.32229701
 P          1.13417697   -1.89517903   -0.07958600
 P         -0.15175501    2.05241108    0.21464200
Pd         -0.78082299   -0.54503202    0.25287601
 C         -2.55613303   -1.89662302    1.23858202
 O         -2.92816496   -0.21748400    0.71658301
 F         -2.02878308   -3.06510210    0.72933400
 F         -3.86135292   -2.22529507    1.33367896
 F         -2.10545397   -1.70848000    2.48901892
 C         -3.89910293   -0.14967200   -0.23504500
 C         -5.18125916    0.26582900    0.16144700
 C         -3.65218306   -0.44733301   -1.58397400
 C         -6.18862581    0.41165599   -0.78928399
 H         -5.36105585    0.47239301    1.21199095
 C         -4.67615986   -0.32047999   -2.52406597
 H         -2.65529799   -0.77209401   -1.87119806
 C         -5.94462919    0.11589600   -2.13489699
 H         -7.17449617    0.74642003   -0.47650701
 H         -4.47761297   -0.55650002   -3.56665301
 H         -6.73691082    0.22151700   -2.87064099
 C         -0.80345100    2.86592603    1.86196303
 C         -2.30147600    3.21039009    1.74220300
 C         -0.02103000    4.11859322    2.29988694
 H         -2.88937712    2.36344790    1.37489498
 H         -2.68240595    3.46931005    2.73940802
 H         -2.48075604    4.07576418    1.09862804
 H          1.04116905    3.90511894    2.45095110
 H         -0.10143000    4.93796110    1.58118904
 H         -0.42581001    4.47963381    3.25586605
 C         -0.67893302    3.15983701   -1.28642797
 C         -0.38851699    4.66582108   -1.13158596
 C         -2.18816304    2.97480202   -1.56327999
 H          0.65027797    4.88023806   -0.86723799
 H         -0.60308701    5.17702103   -2.08057499
 H         -1.02797902    5.12223387   -0.37073001
 H         -2.45988989    1.92122495   -1.66754198
 H         -2.82525301    3.41155291   -0.79431498
 H         -2.43220806    3.47557807   -2.51022410
 C          1.86826301   -2.77672601    1.48091900
 C          3.04123306   -3.73804688    1.19880295
 C          0.75661999   -3.56907892    2.20529389
 H          3.85083508   -3.28065610    0.62635797
 H          3.46164799   -4.07575893    2.15588498
 H          2.71570992   -4.63138723    0.66014200
 H         -0.06791700   -2.92169905    2.50636601
 H          0.34645900   -4.38183212    1.60461295
 H          1.18643403   -4.01381922    3.11331391
 C          0.96507901   -3.22335100   -1.51108301
 C          0.29947400   -4.52435303   -1.02083302
 C          2.30803394   -3.57327008   -2.18416691
 H         -0.65053701   -4.33753300   -0.51773101
 H          0.09285700   -5.15883589   -1.89328396
 H          0.94244301   -5.10321999   -0.35272801
 H          2.77946901   -2.69865799   -2.63924098
 H          3.02399492   -4.02228594   -1.49142003
 H          2.12218404   -4.30387878   -2.98344898
 C         -0.67902601    1.79580104    2.97104406
 H         -1.21132696    0.87630701    2.71105003
 H          0.36049801    1.54223299    3.19280791
 H         -1.11675000    2.19354796    3.89700198
 C          0.03859700    2.61064005   -2.54102397
 H         -0.25196001    1.57129896   -2.72841501
 H         -0.27351999    3.20035195   -3.41329789
 H          1.12695098    2.65212703   -2.48195004
 C          0.03179600   -2.60799599   -2.57623792
 H         -0.94873899   -2.36794806   -2.15404701
 H          0.44747701   -1.69877696   -3.01945806
 H         -0.11177900   -3.33259892   -3.38944006
 C          2.32726598   -1.68302202    2.46788907
 H          1.49030304   -1.03034401    2.73643804
 H          2.68245792   -2.16249108    3.38999391
 H          3.13664699   -1.06307006    2.07769299
