65
title
 C          0.12222000    2.46864295    0.72545201
 C         -0.83665502    2.43477106   -0.30690199
 C         -0.47222900    2.91779089   -1.57471800
 C          0.81462300    3.40209889   -1.81126797
 C          1.75308299    3.44251990   -0.77702397
 H          1.08025301    3.76035810   -2.80229592
 C         -2.26793194    2.10438395   -0.01207500
 C         -2.78221297    0.81745303    0.28586099
 C         -3.14260292    3.20798206   -0.00793300
 C         -4.14853811    0.71713400    0.61333299
 C         -4.49092579    3.07930899    0.30918899
 C         -4.99625492    1.82197201    0.63443100
 H         -5.13596392    3.95383501    0.31106001
 H         -6.04349995    1.69581199    0.89575899
 P         -1.70915306   -0.71129698    0.18756500
Pd          0.49499801   -0.17600700   -0.17705500
 C         -2.47828197   -1.69394898   -1.28802598
 C          1.40113294    2.98554301    0.49320900
 H          2.12330604    3.01517200    1.30355597
 C         -1.85672200   -3.10527110   -1.32947302
 H         -2.21494293   -3.73946691   -0.51178098
 H         -2.14766192   -3.59378910   -2.26900291
 H         -0.76589000   -3.07686710   -1.29074895
 C         -4.01332998   -1.82549000   -1.31347501
 H         -4.41548491   -2.32894301   -0.43039200
 H         -4.50913811   -0.85687798   -1.41738999
 H         -4.29541206   -2.42930889   -2.18650889
 C         -2.04614496   -0.92463797   -2.55629706
 H         -2.45040202    0.09400300   -2.56862092
 H         -0.95731699   -0.86155802   -2.63775802
 H         -2.43107295   -1.44625604   -3.44302607
 C         -1.87482202   -0.55879301    2.98348999
 H         -2.71490097    0.14179701    2.97178793
 H         -1.86391795   -1.05728996    3.96173310
 H         -0.94643497    0.01726500    2.89497089
 C         -1.98152804   -1.62591803    1.87301600
 C         -3.29561210   -2.41134191    2.05362010
 H         -3.28936005   -2.87985110    3.04713798
 H         -4.18750381   -1.78075099    2.00956202
 H         -3.40385008   -3.21651506    1.32124400
 C         -0.80852401   -2.61506104    2.05208206
 H         -0.80808800   -3.40294504    1.29450905
 H          0.15513900   -2.10217690    1.99495995
 H         -0.89291298   -3.09553504    3.03637600
 C          2.06264400   -1.83084595   -1.00554800
 F          1.43625104   -2.82329893   -0.29209900
 F          3.33593297   -2.26521111   -1.02681696
 F          1.60735905   -1.83288896   -2.26079607
 O          2.52998996   -0.10690800   -0.77428299
 C          3.57228303    0.10201800    0.08469500
 C          4.84787178    0.28902799   -0.46974099
 C          3.39887309    0.16750500    1.47486198
 C          5.93057919    0.56825900    0.36082301
 H          4.96335888    0.22025999   -1.54681599
 C          4.49466896    0.42781299    2.29903293
 H          2.40424299    0.01227000    1.88521194
 C          5.76139116    0.63572800    1.74774504
 H          6.91391611    0.72415400   -0.07542200
 H          4.35538006    0.47440401    3.37619805
 H          6.61032820    0.84561503    2.39237690
 H         -2.73556399    4.18767500   -0.24180600
 H         -4.56947517   -0.25145599    0.84645998
 H          2.75108099    3.83084202   -0.95893401
 H         -0.16218300    2.15563703    1.72581697
 H         -1.20679104    2.91226101   -2.37562704
