81
title
 C          0.10065400    3.00377488   -0.12385500
 C          0.79780501    2.00032997    0.62426800
 C          0.24918100    1.59002805    1.87206197
 C         -1.01198006    2.05927992    2.27724695
 C         -1.72446597    2.94520092    1.48360503
 H         -1.43224895    1.72969997    3.21949291
 C          2.19375205    1.60748005    0.20803700
 C          2.62776494    0.34676901   -0.29423699
 C          3.14070296    2.64750290    0.31209201
 C          3.98996091    0.20985501   -0.63246602
 C          4.47687387    2.48512602   -0.03716400
 C          4.90812302    1.24939001   -0.51340401
 H          5.17100382    3.31506991    0.06532200
 H          5.94721079    1.08968306   -0.78876698
 P          1.51639199   -1.15787804   -0.47449300
Pd         -0.65295798   -0.67387998    0.13587800
 C         -1.16872704    3.42507792    0.30304101
 H         -1.72827005    4.13484383   -0.29441500
 C          1.04065001    2.88184094   -2.41282701
 H          1.71898103    3.46184802   -3.04910994
 H          1.54756606    1.96229196   -2.13257504
 H          0.14525500    2.62502289   -3.00697708
 C          0.20196800    4.97761917   -1.57898402
 H          0.93724400    5.47101593   -2.22477102
 H         -0.75756299    4.95525408   -2.12733889
 H          0.07146200    5.58505583   -0.67947501
 C          0.24006200   -0.07036500    3.67463112
 H          0.90814298   -0.81947798    4.11461592
 H         -0.21293600    0.49421501    4.50907278
 H         -0.54845601   -0.59091300    3.12555504
 C          2.06534195    1.48539102    3.48104310
 H          1.65096295    2.18059897    4.23360777
 H          2.70462203    0.76172698    3.99966598
 H          2.68899393    2.05282593    2.78945208
 C         -2.36869407   -2.34555006    0.42025200
 F         -1.69872904   -3.23464799   -0.39901799
 F         -3.65007496   -2.60854292    0.11488000
 F         -2.13656712   -2.71418810    1.68377101
 O         -2.67478704   -0.58666599    0.71255797
 C         -3.65619612   -0.01635400   -0.04896000
 C         -4.94258308    0.07019000    0.50616300
 C         -3.41532707    0.50039899   -1.32965004
 C         -5.96541882    0.69462502   -0.20398200
 H         -5.11429977   -0.34867400    1.49289501
 C         -4.45146418    1.10614395   -2.04034090
 H         -2.41383791    0.42393401   -1.74367702
 C         -5.72763300    1.21209502   -1.48128104
 H         -6.95608187    0.76840800    0.23749000
 H         -4.25775719    1.50358796   -3.03361893
 H         -6.52984810    1.69116604   -2.03571296
 H          2.79838490    3.61110592    0.67520499
 H          4.35064220   -0.74213398   -0.99800801
 C          1.57995796   -1.68487406   -2.34430194
 C          0.94408900   -3.08706689   -2.47067690
 C          0.67401701   -0.70683002   -3.12001109
 H         -0.05141700   -3.12074590   -2.02340698
 H          1.55126500   -3.87506604   -2.01852798
 H         -0.32168499   -0.64156801   -2.66973495
 H          1.10045302    0.29711601   -3.16419101
 C          2.41216612   -2.51841807    0.59892201
 C          1.32839799   -3.52743196    1.03863001
 H          0.84947598   -4.02914286    0.19429900
 H          0.54239798   -3.04049492    1.62105298
 H         -2.71008801    3.28216100    1.79311204
 N          1.01515603    0.76297802    2.75753093
 N          0.71272099    3.66105604   -1.22723901
 C          2.97827291   -1.83939600    1.86277401
 H          3.88345289   -1.26462805    1.64561403
 H          2.25366712   -1.15866601    2.31329894
 H          3.24147606   -2.61626506    2.59331799
 C          2.95819902   -1.68570995   -3.03318095
 H          2.82723594   -2.01389694   -4.07332993
 H          3.40216398   -0.68673199   -3.06242108
 H          3.67223406   -2.36946011   -2.56862307
 H          0.84275901   -3.32885194   -3.53712106
 H          0.56428802   -1.06299305   -4.15340710
 H          1.79429495   -4.29910278    1.66698396
 C          3.56251097   -3.30233097   -0.06679800
 H          3.96718407   -4.00610590    0.67318201
 H          3.24250698   -3.89418411   -0.92732602
 H          4.39304686   -2.66214299   -0.37675399
