92
title
 C          1.94843805    2.44150996   -1.14532006
 C          1.40538299    1.28537703   -1.80534804
 C          2.23256493    0.34390000   -2.43433404
 C          3.60181403    0.58391500   -2.43616796
 C          4.15966797    1.74242496   -1.80975294
 C          3.34784102    2.65261412   -1.17029405
 C          0.86417902    3.13863492   -0.58089000
 C         -0.32828701    2.38476205   -0.82012600
 H          1.84086204   -0.54652101   -2.91331697
 H          5.23033190    1.90355504   -1.83003402
 H          3.78101611    3.52421308   -0.68768698
 N          0.05569900    1.30594099   -1.67745101
 H         -0.54705000    0.49678800   -1.84912002
 C          0.80896503    4.44315195    0.14083999
 H          0.75436199    4.25994778    1.22227097
 H          1.70823503    5.04262877   -0.04649200
 C         -0.48192999    5.20666695   -0.27989200
 H         -0.63086098    6.06356621    0.38519099
 H         -0.35723001    5.60103607   -1.29648805
 C         -1.60339105    3.22845888   -1.14911199
 N         -1.68468404    4.37734222   -0.25284499
 H         -1.81745899    4.04158592    0.70331401
 H         -0.48131600    1.80218506    0.37632000
 C          3.22093391    0.11008500    2.22308302
 C          2.59049892   -1.14487302    2.25279093
 C          4.46108198    0.29185200    2.83118892
 H          2.73583603    0.93718201    1.71081305
 N          1.30350804   -1.21904898    1.67146301
 C          3.21732593   -2.21289492    2.90999293
 C          5.09501982   -0.77535701    3.47072196
 H          4.93379498    1.26988304    2.79707408
 C          0.66311502   -2.24283504    1.03287005
 H          0.80302399   -0.32563600    1.65383196
 C          4.46507788   -2.02089810    3.50394797
 H          2.73118711   -3.17778611    2.95214009
 H          6.06485415   -0.63712800    3.94043207
 S          1.33459699   -3.77128291    0.71575397
 N         -0.60226202   -1.89664102    0.66159701
 H          4.94192791   -2.85755110    4.00787210
 H         -0.88279402   -0.92833400    0.81358999
 C         -1.49772799   -2.70314503   -0.15531600
 C         -1.44194400   -2.17449498   -1.60365903
 H         -1.15188003   -3.73163104   -0.07629600
 O         -1.68393695   -0.96704400   -1.78985500
 N         -1.17109001   -3.02087402   -2.62535906
 C         -0.82079899   -4.43643904   -2.48082590
 C         -1.25489604   -2.52936411   -4.00008488
 H         -0.22419100   -4.60433292   -1.58310604
 H         -1.71362102   -5.07384396   -2.46595311
 H         -0.21033700   -4.72272396   -3.34125495
 H         -0.26465800   -2.54140210   -4.47112322
 H         -1.92476296   -3.17248702   -4.58213711
 H         -1.64110506   -1.51207697   -3.98983312
 O         -0.53445297    1.06125104    1.46899700
 C         -0.90153497    1.76601505    2.52191901
 O         -1.19225001    2.96119404    2.48527193
 C         -2.95201206   -2.61664200    0.38275799
 H         -3.23948598   -1.55658102    0.36212000
 C         -3.03125906   -3.12402797    1.82903194
 H         -2.77598810   -4.18952179    1.88608801
 H         -2.34690499   -2.58104300    2.48777604
 H         -4.04824305   -3.00176692    2.21876407
 C         -3.92951298   -3.38760400   -0.51769298
 H         -4.94671106   -3.31561995   -0.11742700
 H         -3.94952297   -2.99413204   -1.53952205
 H         -3.66887999   -4.45272779   -0.56472999
 H         -1.42092597    3.62854600   -2.15745807
 C         -2.93022394    2.45564008   -1.24322701
 C         -0.93601799    0.97359502    3.81948590
 H          0.06790200    0.60973400    4.06561613
 H         -1.30296397    1.60112703    4.63328123
 H         -1.58142805    0.09561700    3.70932388
 O          4.35790205   -0.34523100   -3.07414699
 C          5.77755594   -0.21712300   -3.07330298
 H          6.14966297   -1.08984196   -3.61157489
 H          6.09936285    0.69329703   -3.59312296
 H          6.17911291   -0.22149201   -2.05345201
 H         -3.64454389    3.13209295   -1.73158097
 H         -2.78584099    1.60913301   -1.92776299
 C         -3.55587792    1.94375002    0.06036000
 C         -4.90668821    1.25557005   -0.18103100
 H         -3.69905210    2.77790308    0.75941098
 H         -2.87489200    1.23808599    0.54910100
 C         -5.58158302    0.76521403    1.10643899
 H         -5.58373213    1.95088398   -0.69977099
 H         -4.76197720    0.40459800   -0.86353600
 C         -6.92643881    0.07380500    0.85930699
 H         -4.90572882    0.07338700    1.62991405
 H         -5.72682285    1.61728406    1.78537905
 H         -7.38364410   -0.26215899    1.79727602
 H         -7.63523006    0.75139600    0.36726001
 H         -6.80757809   -0.80465299    0.21240900
