92
title
 C         -3.25997901   -1.84807003   -0.77681601
 C         -2.91400003   -0.56147403   -0.24305800
 C         -3.80530500    0.52151603   -0.29007399
 C         -5.06182718    0.29721999   -0.83948100
 C         -5.43657017   -0.98366201   -1.35417998
 C         -4.54910898   -2.03724909   -1.32784998
 C         -2.13427711   -2.67712903   -0.61139798
 C         -1.07914197   -1.89316905   -0.04598500
 H         -3.54279208    1.49784601    0.10123700
 H         -6.42395306   -1.12875295   -1.77486598
 H         -4.83921099   -3.00303292   -1.73175204
 N         -1.65456295   -0.61762899    0.25219399
 H         -1.12389398    0.22824299    0.48441201
 C         -1.96123397   -4.13099718   -0.89229000
 H         -1.44278598   -4.25682211   -1.85161698
 H         -2.92974710   -4.64044714   -0.96847099
 C         -1.06953895   -4.75593901    0.21628299
 H         -0.77056098   -5.76694822   -0.07902500
 H         -1.64234495   -4.84756279    1.14617002
 C         -0.10660200   -2.61063600    0.94722402
 H          0.86295599   -2.09885907    0.92095703
 N          0.14083201   -3.97802901    0.47903699
 H          0.66949099   -3.92743397   -0.39443299
 H         -0.23531500   -1.64321995   -1.02186298
 C          5.58258677    0.28368899   -0.59865701
 C          4.35686398   -0.38512000   -0.47338000
 C          6.77138281   -0.39997301   -0.34167400
 H          5.60069513    1.32415402   -0.89161599
 N          3.10260105    0.20270699   -0.76268202
 C          4.34923983   -1.74312603   -0.11475700
 C          6.76403999   -1.74768400    0.02194700
 H          7.71442080    0.13162200   -0.43847701
 C          2.65274310    1.48678100   -0.61936200
 H          2.38267493   -0.46449199   -1.04524505
 C          5.54366112   -2.41788411    0.12679601
 H          3.40189290   -2.26889205   -0.02234200
 H          7.69640779   -2.26998401    0.21687400
 S          3.53577590    2.76871300    0.05495200
 N          1.37959898    1.63521099   -1.07653499
 H          5.51536989   -3.46812010    0.40398699
 H          0.91830999    0.80567503   -1.44869101
 C          0.58294898    2.84671092   -0.95937097
 C         -0.04402800    2.92749095    0.45260599
 H          1.24179006    3.69372296   -1.14931095
 O         -0.66955900    1.94388402    0.88681799
 N          0.04065700    4.08023405    1.15832698
 C          0.81216103    5.25818205    0.75464499
 C         -0.66444403    4.18856812    2.43487000
 H          1.76422405    4.96335983    0.31039399
 H          1.03249598    5.84007978    1.65281904
 H          0.24943499    5.89688396    0.06309900
 H         -1.31776202    5.06868792    2.42522407
 H          0.05393200    4.29386997    3.25622201
 H         -1.25915802    3.29063702    2.58823895
 O          0.70407897   -1.20211804   -1.85769796
 C          1.08652794   -2.14935708   -2.69213390
 O          0.85409600   -3.34715700   -2.52824998
 C         -0.53768200    2.83044410   -2.03659201
 H         -1.13635504    1.92491698   -1.86511505
 C         -1.47231901    4.04239988   -1.90489495
 H         -0.92444497    4.98251009   -2.04651690
 H         -1.97062695    4.07987785   -0.93083501
 H         -2.25213003    3.99759507   -2.67253804
 C          0.05865400    2.76717901   -3.45100403
 H         -0.74327397    2.72120905   -4.19631815
 H          0.69871402    1.89117599   -3.59121203
 H          0.66115201    3.65973496   -3.66115093
 C         -0.61852998   -2.58270597    2.40711308
 O         -5.89759016    1.36970103   -0.85032099
 C         -7.21054602    1.22999799   -1.38566899
 H         -7.79494381    0.48745999   -0.82937098
 H         -7.67677879    2.21030307   -1.27706003
 H         -7.18545103    0.95675802   -2.44734812
 C          1.86019194   -1.64010501   -3.89812589
 H          2.15782499   -2.47457004   -4.53510714
 H          1.23885500   -0.94192600   -4.46959782
 H          2.75143099   -1.09107399   -3.57487988
 H         -1.71022499   -2.69737601    2.42770410
 H         -0.19511500   -3.46351004    2.90659189
 C         -0.21771900   -1.32513702    3.19201708
 C         -0.75204802   -1.32762301    4.63033581
 H         -0.57408702   -0.42281801    2.67917109
 H          0.87948298   -1.25251806    3.21352291
 C         -0.33557999   -0.09181000    5.43822479
 H         -1.85034096   -1.39317203    4.60965109
 H         -0.40307599   -2.23371601    5.14814520
 C         -0.87891501   -0.09610200    6.87084579
 H          0.76140100   -0.02846500    5.46249819
 H         -0.68008399    0.81282800    4.91734695
 H         -0.56390101    0.79773700    7.42174101
 H         -1.97580695   -0.12351000    6.87893391
 H         -0.52295500   -0.97237003    7.42689800
