117
title
 C          3.52348709   -3.63094091   -0.57511401
 C          3.76966310   -2.22501993   -0.45864099
 C          4.94563723   -1.72744000    0.12017600
 C          5.89281893   -2.65095806    0.54898602
 C          5.67663908   -4.05826092    0.42257699
 C          4.50852013   -4.54117107   -0.12621500
 C          2.25484204   -3.77775502   -1.16841805
 C          1.68735695   -2.47839093   -1.36564004
 H          5.13068914   -0.66410398    0.21800999
 H          6.43305111   -4.75391197    0.76417100
 H          4.34863901   -5.61235380   -0.20937900
 N          2.71362209   -1.55068505   -0.98484898
 H          2.54384303   -0.57802999   -0.72731298
 C          1.58371103   -5.01701021   -1.65522695
 H          0.77587599   -5.30329514   -0.96985799
 H          2.28666401   -5.85710192   -1.70528698
 C          0.95122498   -4.71962309   -3.04395604
 H          0.30822200   -5.55329895   -3.34383607
 H          1.74185503   -4.62712717   -3.79887795
 C          0.92760998   -2.30020595   -2.74509501
 N          0.15904900   -3.49678493   -3.04410195
 H         -0.57810903   -3.59238195   -2.34101796
 H          0.70458400   -2.32634902   -0.42356899
 C         -3.59314108   -0.39567599   -0.33005300
 C         -3.09494996    0.64568198    0.47099400
 C         -4.94201517   -0.45076099   -0.66543001
 H         -2.92272711   -1.16532099   -0.69581598
 N         -1.72759604    0.57615799    0.78692001
 C         -3.98626804    1.62211001    0.93812299
 C         -5.83144522    0.52527303   -0.21607400
 C         -0.85163200    1.48062396    1.33550298
 H         -1.30595505   -0.32254499    0.55174398
 C         -5.33509398    1.55155802    0.58517897
 H         -3.62921405    2.42017794    1.57165205
 H         -6.88276482    0.47771800   -0.47114500
 S         -1.19724703    3.10410190    1.67634499
 N          0.36364901    0.91680902    1.57242000
 H          0.50054699   -0.04688000    1.28031397
 C          1.50904596    1.59407699    2.16349602
 C          2.52157903    1.92889500    1.04585302
 H          1.11700201    2.51679897    2.58954096
 O          2.87080908    1.06261599    0.22748600
 O         -0.12760100   -2.07777309    0.51242000
 C         -1.09592199   -2.97540689    0.51789999
 O         -1.36323798   -3.70519209   -0.44189000
 C          2.11954904    0.75100100    3.34489989
 C          3.31898904    1.50307703    3.95499396
 H          3.01902795    2.47097993    4.37210608
 H          4.11782217    1.67131698    3.22391295
 H          3.74472904    0.91364300    4.77472401
 C          1.03302705    0.60237402    4.42984819
 H          1.43169105    0.04227900    5.28371811
 H          0.15552101    0.06683400    4.05461121
 H          0.69658899    1.57976997    4.79466486
 H          1.72696400   -2.22912407   -3.49692512
 C          0.08194600   -1.03726196   -2.87251902
 C          0.67513400    0.22975600   -2.75572705
 C         -1.28087795   -1.10067499   -3.19375396
 C         -0.06761800    1.39715397   -2.92662096
 H          1.73710597    0.32270500   -2.55069900
 C         -2.04014802    0.05763600   -3.37374902
 H         -1.75666404   -2.06416798   -3.33206511
 C         -1.41855800    1.29010105   -3.23211908
 H          0.39383000    2.37387896   -2.83715796
 H         -3.09745002    0.00434500   -3.60876989
 O          7.02500916   -2.12365794    1.08529198
 C          8.06073570   -2.99523211    1.53102195
 H          8.45096302   -3.60811090    0.70982599
 H          8.85257053   -2.34310603    1.90225804
 H          7.71684504   -3.64613390    2.34365010
 N          3.02258801    3.18506694    0.98947603
 C          4.09103584    3.51776004    0.02196600
 C          2.69896793    4.32226992    1.88502395
 C          4.73480988    4.76531601    0.67280102
 H          4.79203796    2.67951703   -0.01535400
 C          3.54298902    5.47835588    1.32662404
 H          1.62523198    4.53024483    1.87145698
 H          5.26364088    5.38324594   -0.05692700
 H          2.97591209    6.03654289    0.57476699
 H          3.83913803    6.17983294    2.11134005
 H          2.99562907    4.09107208    2.91260600
 H          5.45374107    4.44639301    1.43730402
 C          3.59531999    3.79233098   -1.39305496
 C          4.48680019    3.61985803   -2.46095490
 C          2.31389189    4.28759909   -1.66268694
 C          4.11519384    3.94667506   -3.76509809
 H          5.48247194    3.22526097   -2.26820302
 C          1.94100201    4.62151909   -2.96795011
 H          1.59412706    4.40011406   -0.85702503
 C          2.83974910    4.45433378   -4.02282810
 H          4.81974506    3.80088592   -4.57967806
 H          0.94380200    5.01032209   -3.15730810
 H          2.54673195    4.71063614   -5.03716421
 C         -6.26408195    2.64230394    1.05119896
 C         -5.42290020   -1.54588199   -1.57786906
 F         -6.73408079   -1.81403899   -1.40281403
 F         -5.26488590   -1.21314597   -2.88612199
 F         -4.74232817   -2.69964004   -1.39128995
 F         -5.90781593    3.13065600    2.25925493
 F         -7.54098320    2.20696211    1.15218997
 F         -6.27530003    3.68932605    0.19313200
 F         -2.14306307    2.41864300   -3.40750599
 C          2.59458590   -0.64444798    2.89688206
 H          3.40291309   -0.58255798    2.16522002
 H          2.96755791   -1.19705296    3.76729989
 H          1.79077697   -1.24582100    2.45729804
 C         -1.90371299   -3.05537510    1.78037798
 C         -1.41547406   -2.57360506    3.00234795
 C         -3.17293191   -3.65032196    1.72993004
 C         -2.18483591   -2.68850899    4.15983582
 H         -0.42822200   -2.12720799    3.04404402
 C         -3.94629502   -3.75063109    2.88439012
 H         -3.54297090   -4.01192522    0.77660400
 C         -3.45236993   -3.27284908    4.10164690
 H         -1.79646599   -2.32149601    5.10590601
 H         -4.93368006   -4.20148611    2.83667588
 H         -4.05436277   -3.35537100    5.00261116
