117
title
 C          0.50297803   -0.25838900    3.25179100
 C         -0.27108699    0.61516398    2.41416407
 C          0.15535800    1.91912496    2.12387109
 C          1.33736098    2.35568810    2.71316600
 C          2.09420204    1.51758504    3.59139800
 C          1.68866503    0.22853801    3.85160208
 C         -0.15243800   -1.50111902    3.26871991
 C         -1.28438902   -1.42595994    2.39729595
 H         -0.40289801    2.57736707    1.46928298
 H          3.00916910    1.88618302    4.03587723
 H          2.28572512   -0.41115600    4.49428701
 N         -1.37132001   -0.05700200    1.98456097
 H         -1.95343399    0.26825699    1.20793104
 C          0.14833100   -2.73405790    4.05263090
 H          0.64621103   -3.47179294    3.40924191
 H          0.82606000   -2.51915097    4.88748503
 C         -1.18985701   -3.34973311    4.54800081
 H         -1.00646901   -4.34467220    4.96649981
 H         -1.60477304   -2.72927094    5.35234404
 C         -2.56207705   -2.18256807    2.90652299
 N         -2.18981004   -3.46798110    3.49064207
 H         -1.80147600   -4.05922222    2.75420809
 H         -0.80532700   -2.04253697    1.28001201
 C          3.40234303   -0.19784500    0.49584001
 C          2.88830400   -0.02289600   -0.79302597
 C          4.77063417   -0.04962200    0.73036200
 H          2.73241401   -0.43881100    1.31375301
 N          1.50667906   -0.23168901   -0.99471003
 C          3.76016593    0.28069600   -1.84695494
 C          5.64095497    0.27294499   -0.30927101
 C          0.63881201    0.52186298   -1.75154400
 H          1.08624196   -0.97512197   -0.43380299
 C          5.12247276    0.43331900   -1.59497702
 H          3.37663198    0.38564801   -2.85199094
 H          6.70317888    0.38069701   -0.12595400
 S          1.07686102    1.95078695   -2.55049896
 N         -0.61175501   -0.00068200   -1.78416598
 H         -0.79641402   -0.81574702   -1.20287097
 C         -1.75133598    0.60851198   -2.45976806
 C         -2.50698900    1.51283097   -1.45824206
 H         -1.33520198    1.21935296   -3.26061702
 O         -2.76369309    1.10917199   -0.31312200
 O         -0.29934701   -2.43178296    0.14975201
 C         -0.19076000   -3.74530196    0.15583301
 O         -0.57307100   -4.45342684    1.09465003
 C         -2.66082907   -0.49279001   -3.12106395
 C         -1.82127094   -1.24178898   -4.17639208
 H         -1.41578496   -0.55310899   -4.92728281
 H         -0.98439199   -1.78177094   -3.72402811
 H         -2.44755507   -1.97610795   -4.69609499
 C         -3.85325789    0.17300799   -3.83669901
 H         -4.48505020   -0.59991997   -4.28794003
 H         -4.48205519    0.74922901   -3.14920998
 H         -3.52234101    0.83473003   -4.64502001
 H         -2.94463706   -1.56135499    3.72792006
 C         -3.70227003   -2.31518698    1.90736902
 C         -4.68285894   -1.31501698    1.85971105
 C         -3.85352993   -3.43630099    1.07831097
 C         -5.79131889   -1.41995597    1.01833105
 H         -4.58924484   -0.44225001    2.50108600
 C         -4.95998478   -3.56416893    0.23826000
 H         -3.11115599   -4.22685909    1.08424401
 C         -5.91213179   -2.55233598    0.22409600
 H         -6.55617094   -0.65097803    0.98562098
 H         -5.09010410   -4.43429995   -0.39708301
 O          1.72392297    3.61951399    2.40256095
 C          2.99909711    4.08518410    2.84268403
 H          3.12632608    5.06659222    2.38400888
 H          3.03337598    4.18847799    3.93395400
 H          3.80259395    3.41822290    2.51083994
 N         -2.90444112    2.73987293   -1.87266600
 C         -3.78645301    3.56578302   -1.01979804
 C         -2.61446905    3.38642597   -3.17488003
 C         -4.40278912    4.54155779   -2.05048609
 H         -4.54606199    2.91257501   -0.58101302
 C         -3.25282788    4.77702808   -3.03933597
 H         -1.53564894    3.42402101   -3.35120797
 H         -4.76787710    5.45856714   -1.58161998
 H         -2.53315091    5.48781300   -2.62010789
 H         -3.08322191    2.82812095   -3.99062490
 H         -3.58697295    5.16671705   -4.00481606
 H         -5.24595404    4.05480623   -2.55570889
 C         -3.07263803    4.29779482    0.11080600
 C         -3.83510208    4.75622892    1.19442999
 C         -1.70458996    4.59048700    0.08125700
 C         -3.24908805    5.49889994    2.21884394
 H         -4.89826488    4.52730703    1.23608994
 C         -1.11363494    5.33154202    1.10915196
 H         -1.08874595    4.22137880   -0.73434299
 C         -1.88341296    5.79072905    2.17830491
 H         -3.85666990    5.84226418    3.05215907
 H         -0.04607000    5.52779293    1.08077097
 H         -1.42215300    6.36268091    2.97881293
 C          6.04541779    0.81108099   -2.72378612
 C          5.30211782   -0.15903901    2.13325596
 F          6.16422701    2.15365291   -2.84403110
 F          5.60578918    0.34718299   -3.91375208
 F          7.29310894    0.32435700   -2.53481507
 F          6.58755922   -0.56965601    2.15844703
 F          5.26752090    1.03984106    2.77621198
 F          4.58509588   -1.02188897    2.88679504
 F         -6.98991299   -2.67584300   -0.58556801
 C          0.43270800   -4.37936020   -1.05658805
 C          0.54216599   -5.77752399   -1.08690798
 C          0.90772402   -3.63313389   -2.14357090
 C          1.11353302   -6.41779709   -2.18412089
 H          0.17284501   -6.34351301   -0.23869000
 C          1.48148799   -4.27437210   -3.24169207
 H          0.83371699   -2.55252695   -2.13191199
 C          1.58486104   -5.66694021   -3.26463008
 H          1.19269598   -7.50140476   -2.19754291
 H          1.84844601   -3.68611193   -4.07818794
 H          2.03189206   -6.16517782   -4.12072515
 C         -3.20767999   -1.49679995   -2.09018898
 H         -3.80054212   -1.00322998   -1.31694198
 H         -3.84890103   -2.22602510   -2.59812093
 H         -2.41476107   -2.06559706   -1.59347796
