117
title
 C         -0.30861899    1.43310702   -2.74758601
 C         -0.75344300    0.28221101   -2.00748801
 C         -0.33501300   -1.01414001   -2.34196997
 C          0.51631403   -1.15373397   -3.43182993
 C          0.95171201   -0.02424500   -4.19550085
 C          0.54982299    1.24791098   -3.85787201
 C         -0.86812401    2.56549692   -2.12664890
 C         -1.56594205    2.12684298   -0.95834202
 H         -0.65210700   -1.88724303   -1.78356099
 H          1.62082696   -0.16532800   -5.03423214
 H          0.90099698    2.10080695   -4.43093109
 N         -1.55789399    0.69960898   -0.99983698
 H         -1.91788995    0.10122200   -0.24902301
 C         -0.82113802    4.01039982   -2.49632502
 H         -0.02524200    4.50875187   -1.92662799
 H         -0.59078598    4.13954687   -3.56086993
 C         -2.17543101    4.67243910   -2.11719298
 H         -2.09174609    5.75989294   -2.21113706
 H         -2.95411706    4.34532309   -2.81581593
 C         -2.80564594    2.93244410   -0.48788700
 N         -2.60618901    4.36522913   -0.75447798
 H         -1.88762403    4.69983721   -0.10970300
 H         -0.65966803    2.38765812   -0.01832800
 C          3.16733193    0.34370899   -0.93861902
 C          2.97743201   -0.34376901    0.26937100
 C          4.35312796    0.19178499   -1.65434897
 H          2.38586211    0.99434000   -1.31611204
 N          1.78081203   -0.09519900    0.96974999
 C          3.99881411   -1.17161298    0.75312001
 C          5.36581612   -0.64760500   -1.18848896
 C          1.02069294   -0.94116497    1.74376500
 H          1.36899102    0.82523602    0.79499799
 C          5.17398691   -1.32197404    0.01600800
 H          3.87898588   -1.68338704    1.69671905
 H          6.29028797   -0.75845701   -1.74259901
 S          1.37198198   -2.57571697    2.01460505
 N         -0.06347300   -0.31884399    2.27449393
 H         -0.22912800    0.64580500    1.99335098
 C         -1.11369395   -0.98628902    3.03553796
 C         -2.11522603   -1.63717306    2.05162811
 H         -0.62470102   -1.76059306    3.62754893
 O         -2.55964494   -0.98711401    1.09107304
 O          0.20762900    2.42503190    1.00091004
 C          0.49682099    3.67300892    1.31591296
 O         -0.02127000    4.64920282    0.76512402
 C         -1.80020106    0.01312500    4.03772402
 C         -0.72867101    0.52794498    5.02105093
 H         -0.23999600   -0.30136901    5.54636621
 H          0.04666000    1.11188805    4.51651478
 H         -1.19432998    1.17463696    5.77362013
 C         -2.87878489   -0.73696399    4.84529209
 H         -3.35112190   -0.04855900    5.55461502
 H         -3.66963911   -1.14216101    4.20461178
 H         -2.44723105   -1.55950999    5.42679119
 H         -2.89001894    2.84049511    0.60056901
 C         -4.12648678    2.44766307   -1.08376396
 C         -5.30929899    2.71582389   -0.37922701
 C         -4.22126818    1.79260600   -2.31675696
 C         -6.55440283    2.34479904   -0.88218600
 H         -5.25416279    3.23120093    0.57608700
 C         -5.45952892    1.41293597   -2.84049892
 H         -3.32354212    1.56331098   -2.88197207
 C         -6.60577297    1.69620299   -2.11123300
 H         -7.47244692    2.54778409   -0.34029999
 H         -5.53922987    0.90177202   -3.79431605
 O          0.90262002   -2.42296004   -3.71861410
 C          1.88858700   -2.64118099   -4.72693205
 H          2.09130597   -3.71286702   -4.70994282
 H          1.51697099   -2.35947800   -5.71954393
 H          2.80889893   -2.08965302   -4.50649977
 N         -2.51903605   -2.90796900    2.27385211
 C         -3.57006407   -3.51122189    1.42413604
 C         -2.04761100   -3.83211899    3.33108091
 C         -4.02983618   -4.71065998    2.28652000
 H         -4.37192392   -2.77794790    1.29865098
 C         -2.73767090   -5.15889788    2.98280001
 H         -0.95655102   -3.90090895    3.31717610
 H         -4.49391222   -5.49510002    1.68387699
 H         -2.11695409   -5.73857594    2.29145288
 H         -2.36801910   -3.47765493    4.31643677
 H         -2.91545391   -5.77133608    3.87106609
 H         -4.76252508   -4.36901188    3.02789903
 C         -3.09175801   -3.93653798    0.03960500
 C         -4.05299616   -4.15843391   -0.95646203
 C         -1.74503303   -4.16792488   -0.26217300
 C         -3.68127108   -4.60991287   -2.22238994
 H         -5.10277891   -3.97085810   -0.73936099
 C         -1.37009299   -4.61764479   -1.53206396
 H         -0.97937799   -3.97581005    0.48442599
 C         -2.33516097   -4.84257507   -2.51456499
 H         -4.44148207   -4.77159977   -2.98225188
 H         -0.31858200   -4.77766418   -1.75412500
 H         -2.04066801   -5.18685484   -3.50217605
 C          6.24061584   -2.25904012    0.51967800
 C          4.53373289    0.88680798   -2.97644806
 F          7.47311497   -1.88559794    0.10673500
 F          6.04540014   -3.52219391    0.07442100
 F          6.26657295   -2.31817603    1.86881697
 F          5.80455589    1.31081295   -3.15017009
 F          4.26325798    0.05712800   -4.02077103
 F          3.72542906    1.95901000   -3.11122489
 F         -7.80939007    1.32699895   -2.60769892
 C          1.51134801    3.87992907    2.40758610
 C          2.13202095    2.81935811    3.08160710
 C          1.84037495    5.19791889    2.75784898
 C          3.06520700    3.07290196    4.08740711
 H          1.89055598    1.79586303    2.82197690
 C          2.77243710    5.45089912    3.76156497
 H          1.35227001    6.00973701    2.22976494
 C          3.38745499    4.38800716    4.42904520
 H          3.54096699    2.24290800    4.60236216
 H          3.02005601    6.47581387    4.02412796
 H          4.11508608    4.58406210    5.21206188
 C         -2.46534896    1.21033502    3.32749200
 H         -3.22891998    0.88348901    2.61682105
 H         -2.94241190    1.85419405    4.07538414
 H         -1.74153399    1.83215702    2.78921294
