113
title
 C         -3.32451701   -3.30673504   -0.18347900
 C         -3.47143292   -1.87962103   -0.15851700
 C         -4.69042587   -1.25710797   -0.46596101
 C         -5.77447319   -2.07600093   -0.75951999
 C         -5.65688992   -3.50083590   -0.76509601
 C         -4.45042992   -4.10642576   -0.48685700
 C         -1.97662199   -3.58532190    0.11878200
 C         -1.28357100   -2.34377789    0.25643700
 H         -4.79987001   -0.17859399   -0.46242699
 H         -6.51985312   -4.11290979   -0.99628299
 H         -4.36820984   -5.18949080   -0.50525600
 N         -2.28220701   -1.32300305    0.17745200
 H         -2.09932804   -0.32267201    0.05508900
 C         -1.27489400   -4.88508415    0.30865699
 H         -0.70967603   -5.13472319   -0.59799403
 H         -1.98556602   -5.69984198    0.49305001
 C         -0.26747599   -4.73636007    1.48187697
 H          0.39121699   -5.61032820    1.51276696
 H         -0.81704998   -4.71529484    2.42642593
 C         -0.08427000   -2.24710488    1.25217295
 H          0.66989303   -1.58763194    0.80535698
 N          0.57981199   -3.54881907    1.38074803
 H          1.18956900   -3.67194605    0.57381600
 H         -0.63114202   -2.21772599   -0.88045102
 C          4.11715317    1.26073503   -0.85543501
 C          3.18425894    0.23197000   -1.04978001
 C          5.40067196    0.95138001   -0.40031800
 H          3.84017301    2.28464389   -1.05796599
 N          1.86228001    0.39574701   -1.49445295
 C          3.57971501   -1.09539795   -0.79614699
 C          5.79144001   -0.35892299   -0.13566799
 C          1.07469201    1.49616396   -1.73761201
 H          1.36288404   -0.48982900   -1.60319996
 C          4.86301899   -1.37994802   -0.34342399
 H          2.88204098   -1.91211498   -0.95443797
 H          6.78971004   -0.58102697    0.22058800
 S          1.54699004    3.11457491   -1.57742703
 N         -0.17028300    1.13494802   -2.14491200
 H         -0.37524700    0.13758700   -2.20641398
 C         -1.27959299    2.04847407   -2.38385510
 C         -1.96648502    2.38591695   -1.04015398
 H         -0.87513298    2.94770002   -2.85115290
 O         -2.33498311    1.46799004   -0.28896901
 O         -0.00174700   -1.85133898   -1.99723494
 C          0.72192198   -2.84465790   -2.48122597
 O          1.10050702   -3.80541992   -1.81145203
 C         -2.29523993    1.37637198   -3.34816694
 H         -2.62319303    0.44473600   -2.86592388
 C         -3.53752804    2.25328207   -3.56545997
 H         -3.27167296    3.20873404   -4.03473377
 H         -4.06563520    2.46501803   -2.63005209
 H         -4.24123096    1.74451303   -4.23268890
 C         -1.63892996    1.03380799   -4.69406700
 H         -2.36225891    0.53664201   -5.34991407
 H         -0.77919799    0.36735001   -4.57751417
 H         -1.29339600    1.94213402   -5.20320320
 O         -6.93903399   -1.43090200   -1.03768206
 C         -8.10610867   -2.19104099   -1.33752406
 H         -8.39288044   -2.83579206   -0.49816999
 H         -8.89497471   -1.45871902   -1.51531804
 H         -7.96891594   -2.80125690   -2.23827505
 C          1.07813394   -2.69535494   -3.95117903
 H          1.66601002   -1.78322804   -4.10584497
 H          1.65332198   -3.55805802   -4.29100800
 H          0.16510600   -2.59648299   -4.54758883
 N         -2.19669509    3.67666292   -0.72258902
 C         -2.94713402    4.01193714    0.50822502
 C         -1.83607101    4.87371302   -1.51491296
 C         -3.34738493    5.48571110    0.25513801
 H         -3.82892489    3.36595702    0.55911499
 C         -2.18017912    6.03705597   -0.57529700
 H         -0.77844501    4.84472418   -1.78820097
 H         -3.51270604    6.03039885    1.18780506
 H         -1.32640600    6.26132107    0.07308800
 H         -2.43996096    4.91880083   -2.42957401
 H         -2.43398499    6.94688606   -1.12619495
 H         -4.27565098    5.51735783   -0.32831100
 C         -2.14790893    3.82243896    1.79356003
 C         -2.84868503    3.70692301    3.00250101
 C         -0.74934900    3.80514002    1.82234204
 C         -2.16988611    3.58820510    4.21468782
 H         -3.93704104    3.70560598    2.99331403
 C         -0.06696100    3.68452096    3.03603697
 H         -0.18549401    3.86379004    0.89567900
 C         -0.77238601    3.57961297    4.23570395
 H         -2.73084402    3.49763989    5.14127207
 H          1.01970696    3.66992593    3.03880906
 H         -0.23972300    3.48746204    5.17838192
 C          6.36200285    2.07996798   -0.12994801
 C          5.26946783   -2.81484795   -0.13277701
 F          7.64978123    1.68167496   -0.23660100
 F          6.20829105    2.57565594    1.12108600
 F          6.18570805    3.11151695   -0.98341298
 F          6.20554495   -2.93292689    0.83469802
 F          4.22174788   -3.59227610    0.21792699
 F          5.79899979   -3.35295296   -1.25710404
 C         -0.46423200   -1.55747104    2.59090996
 C         -1.56706202   -2.23586106    3.42388511
 C          0.78557199   -1.31826794    3.46052003
 H         -0.85177702   -0.56874901    2.30014396
 C         -1.92139900   -1.38895500    4.65828085
 H         -1.21914506   -3.21876001    3.76819611
 H         -2.46303797   -2.40574408    2.81385994
 C          0.45166701   -0.49530801    4.71548605
 H          1.21025705   -2.28876710    3.74721503
 H          1.55710995   -0.80375499    2.87160802
 C         -0.68331200   -1.13325298    5.53082705
 H         -2.70357990   -1.88929904    5.24403715
 H         -2.34077907   -0.42692301    4.32936716
 H          1.34917796   -0.38331100    5.33793592
 H          0.15150400    0.51848298    4.41311502
 H         -0.94404203   -0.49389800    6.38436890
 H         -0.33577901   -2.08936906    5.95025206
