107
title
 C          0.54254103   -2.15681291    2.48334599
 C         -0.12692600   -0.91359401    2.21298409
 C          0.45981199    0.32154900    2.52506804
 C          1.70786798    0.30194399    3.13845801
 C          2.37402201   -0.92618400    3.44977307
 C          1.80481994   -2.13573694    3.12390304
 C         -0.27412501   -3.18243694    1.97750294
 C         -1.39290798   -2.57836008    1.32211399
 H         -0.02226200    1.26514304    2.29639602
 H          3.34704208   -0.90757197    3.92278194
 H          2.32967710   -3.06120205    3.34089088
 N         -1.31404805   -1.17912102    1.60895205
 H         -1.85514700   -0.45933899    1.11840403
 C         -0.12821300   -4.66640186    2.04713798
 H          0.31218001   -5.03939915    1.11217797
 H          0.54455602   -4.96166420    2.86138701
 C         -1.53530204   -5.30523396    2.20921493
 H         -1.46582794   -6.38951921    2.07499099
 H         -1.90617204   -5.12632799    3.22631407
 C         -2.75011110   -3.34866190    1.41458094
 N         -2.51798105   -4.78319120    1.26047802
 H         -2.16675091   -4.95983601    0.31702000
 H         -0.99076903   -2.63947511    0.04934700
 C          3.24616599   -0.93291301   -0.39758500
 C          2.67948103   -0.12987500   -1.39630604
 C          4.62927389   -0.96120900   -0.22020800
 H          2.60318804   -1.52695704    0.24316700
 N          1.28221095   -0.18278299   -1.56520498
 C          3.51700592    0.63009602   -2.22347903
 C          5.46718693   -0.19138500   -1.02681601
 C          0.40373501    0.85106999   -1.79464698
 H          0.84554702   -1.07724595   -1.32610703
 C          4.89723206    0.59901601   -2.02473688
 H          3.09289098    1.22891605   -3.01671290
 H          6.54177713   -0.22026700   -0.89263397
 S          0.85418099    2.47300601   -1.98858595
 N         -0.88186401    0.42788500   -1.84363604
 H         -1.05513597   -0.56133002   -1.66382098
 C         -2.04795599    1.29071498   -1.97532499
 C         -2.42557192    1.87226200   -0.59375101
 H         -1.78990197    2.08866811   -2.67306805
 O         -2.53409410    1.12091804    0.38820601
 O         -0.55332601   -2.47009802   -1.17932796
 C         -0.54085702   -3.60015988   -1.85639906
 O         -0.95524001   -4.67279482   -1.41414797
 C         -3.22796011    0.45601401   -2.54609489
 H         -3.37630105   -0.38794801   -1.85984004
 C         -2.89140511   -0.09320300   -3.94048095
 H         -2.75678992    0.72345400   -4.66079903
 H         -1.97450495   -0.69058001   -3.93946695
 H         -3.70754004   -0.72812998   -4.30255795
 C         -4.54156017    1.25106299   -2.59211302
 H         -5.35852098    0.59937298   -2.91701794
 H         -4.81816292    1.65189695   -1.61176801
 H         -4.47736883    2.08596396   -3.30096793
 H         -3.11052203   -3.19186497    2.44039512
 C         -3.83602095   -2.82528591    0.48527399
 C         -4.68553209   -1.80634606    0.93813300
 C         -4.03834009   -3.33747292   -0.80478603
 C         -5.70769978   -1.29863596    0.13520700
 H         -4.55077505   -1.40098703    1.93766797
 C         -5.05982780   -2.84792900   -1.62006903
 H         -3.40022898   -4.12538624   -1.18922496
 C         -5.87622118   -1.83420897   -1.13431597
 H         -6.36719894   -0.51075602    0.48361301
 H         -5.22801495   -3.24450898   -2.61620307
 C          0.01839800   -3.48353410   -3.26477599
 H          0.98719102   -2.97421098   -3.25862408
 H          0.12228100   -4.47428608   -3.70999694
 H         -0.66097498   -2.88301110   -3.88075805
 O          2.24913001    1.51443505    3.41844702
 C          3.58487201    1.58420300    3.91550803
 H          3.81985402    2.64785409    3.97290897
 H          3.66445899    1.14219499    4.91605282
 H          4.28775978    1.08921099    3.23654103
 N         -2.69202399    3.19363189   -0.49914500
 C         -3.22435808    3.76216698    0.75749999
 C         -2.60273790    4.19816780   -1.58354497
 C         -3.85324502    5.08937693    0.26940599
 H         -3.98557997    3.07882190    1.14603996
 C         -2.92305112    5.52048492   -0.87281197
 H         -1.60660505    4.18437195   -2.03376889
 H         -3.92807293    5.82775116    1.07137203
 H         -2.00667095    5.96263790   -0.46746999
 H         -3.34587598    3.98490691   -2.36078596
 H         -3.37846303    6.24850893   -1.54977202
 H         -4.86242580    4.89678097   -0.11474800
 C         -2.17563295    3.97440600    1.84454298
 C         -2.61468101    4.19299603    3.15825796
 C         -0.80205399    4.00466919    1.58037698
 C         -1.70475900    4.44551277    4.18404722
 H         -3.67985892    4.16146994    3.37996411
 C          0.11207900    4.25230598    2.60902691
 H         -0.43792599    3.81231594    0.57495898
 C         -0.33476001    4.47626591    3.91153407
 H         -2.06447005    4.60919285    5.19666815
 H          1.17563200    4.25338888    2.38905692
 H          0.37771201    4.66373301    4.71025515
 C          5.78396177    1.46134806   -2.88462496
 C          5.22527981   -1.77225697    0.89781803
 F          5.94923878    2.69442511   -2.35234594
 F          5.27420521    1.63346303   -4.12354803
 F          7.01893902    0.92790502   -3.02519989
 F          6.44910812   -2.24652195    0.58059603
 F          5.38278484   -1.03097498    2.02810693
 F          4.45410299   -2.82952309    1.23289394
 F         -6.85739803   -1.34369195   -1.93132901
