107
title
 C         -4.17175722   -3.07555509   -0.21217901
 C         -4.05364895   -1.67033696    0.04100700
 C         -5.05117893   -0.76457900   -0.34772101
 C         -6.18872309   -1.28202498   -0.95770699
 C         -6.33895397   -2.68396902   -1.19458997
 C         -5.34486389   -3.56639099   -0.83182299
 C         -2.99026108   -3.67840290    0.25916499
 C         -2.11572504   -2.65124106    0.74056101
 H         -4.96054602    0.29995501   -0.16696900
 H         -7.23789120   -3.05854392   -1.66826105
 H         -5.46279812   -4.62856388   -1.02605903
 N         -2.87300301   -1.43467295    0.67033601
 H         -2.46514297   -0.49632800    0.66926003
 C         -2.64738703   -5.12615490    0.36089900
 H         -1.98335302   -5.40377188   -0.46697301
 H         -3.54512000   -5.75241613    0.29248300
 C         -1.88265800   -5.37344313    1.69033301
 H         -1.44291401   -6.37578678    1.68229401
 H         -2.57961202   -5.32901001    2.53630400
 C         -1.30862904   -3.03522706    2.04309392
 N         -0.81837702   -4.39977598    1.91755998
 H         -0.17579500   -4.44989920    1.12279499
 H         -1.13751900   -2.49265504   -0.17694700
 C          3.59905100   -1.04938698   -0.21642500
 C          3.13292694   -0.01634600   -1.04352200
 C          4.96576405   -1.26791894   -0.05896200
 H          2.88804102   -1.67453301    0.31294799
 N          1.73969603    0.09059600   -1.19322002
 C          4.06379223    0.78197199   -1.72392404
 C          5.89703894   -0.46401399   -0.71512097
 C          0.94605201    1.16834700   -1.50655603
 H          1.22217298   -0.75594300   -0.94932002
 C          5.42853498    0.55500501   -1.54421699
 H          3.72461796    1.56418896   -2.38685393
 H          6.95940590   -0.63789600   -0.59694701
 S          1.49240506    2.76389790   -1.66787505
 N         -0.35185501    0.80655700   -1.66343105
 H         -0.58182102   -0.17812100   -1.53078496
 C         -1.46037304    1.72374296   -1.89103699
 C         -2.01768208    2.19631290   -0.52800399
 H         -1.06539094    2.56657100   -2.45907402
 O         -2.34505510    1.36208403    0.33258301
 O         -0.24664301   -2.18247104   -1.06194198
 C          0.30561700   -3.27757812   -1.55205798
 O          0.23034801   -4.38263416   -1.01594496
 C         -2.56291509    1.01559496   -2.72311592
 H         -2.89169788    0.14007699   -2.14718890
 C         -3.78506994    1.92207003   -2.93317604
 H         -3.52426696    2.80556798   -3.52923107
 H         -4.22018099    2.26261592   -1.98779500
 H         -4.56579590    1.37778401   -3.47466993
 C         -2.01443791    0.53784901   -4.07587290
 H         -2.79682899    0.01376900   -4.63601398
 H         -1.16863298   -0.14639300   -3.95956397
 H         -1.67768705    1.38684404   -4.68367290
 H         -2.04856110   -3.03213906    2.85617900
 C         -0.20988099   -2.05658102    2.44192410
 C         -0.53385198   -0.72651899    2.75286889
 C          1.12180102   -2.46626496    2.59210706
 C          0.43779501    0.17976600    3.17428708
 H         -1.56177497   -0.38450599    2.68492293
 C          2.10931396   -1.57456005    3.01951194
 H          1.39108396   -3.49952698    2.40512609
 C          1.74894798   -0.26265499    3.29714489
 H          0.18852200    1.20892298    3.40802002
 H          3.14293504   -1.88399804    3.13065410
 O         -7.13430691   -0.36966899   -1.30455399
 C         -8.34234810   -0.81077701   -1.91928506
 H         -8.89993763   -1.49242103   -1.26622295
 H         -8.93199921    0.09165700   -2.08631301
 H         -8.14829159   -1.30010498   -2.88113308
 C          1.08273804   -3.07341790   -2.84282804
 H          2.03378606   -2.57134295   -2.63001609
 H          1.29796505   -4.04031420   -3.30090499
 H          0.52461803   -2.44077110   -3.53908300
 N         -2.16081405    3.52103400   -0.30972400
 C         -2.76433492    4.00907183    0.94894600
 C         -1.86469495    4.61975908   -1.25933003
 C         -3.21840906    5.43559599    0.55809700
 H         -3.61861110    3.37032604    1.19142795
 C         -2.14277697    5.88745785   -0.43925101
 H         -0.83101398    4.55550289   -1.60873199
 H         -3.30726290    6.09092999    1.42790604
 H         -1.23819900    6.19693613    0.09479800
 H         -2.46252108    6.72027922   -1.07154202
 H         -2.53577900    4.56030321   -2.12420607
 H         -4.19715786    5.38523388    0.06541100
 C         -1.80654800    4.00173187    2.13657498
 C         -2.34495401    4.09286022    3.42830396
 C         -0.41590101    3.96078992    1.98901403
 C         -1.51503098    4.15419817    4.54707193
 H         -3.42533493    4.11325884    3.55858898
 C          0.41832799    4.02265215    3.10948205
 H          0.02404200    3.86009789    1.00082505
 C         -0.12645300    4.12257814    4.39061022
 H         -1.95135498    4.22121906    5.54030085
 H          1.49605501    3.98229504    2.97632003
 H          0.52357501    4.16783905    5.26016712
 C          6.41513205    1.45826101   -2.23776293
 C          5.43269777   -2.34630299    0.88172901
 F          6.65242100   -2.81757593    0.54798001
 F          5.52492714   -1.89234495    2.15842795
 F          4.58183813   -3.39665794    0.90895098
 F          5.94740582    1.90150201   -3.42534804
 F          7.59004307    0.83159798   -2.47463202
 F          6.69849014    2.55276799   -1.49425995
 F          2.69873190    0.60737300    3.71025610
