114
title
 C         -0.35249600    1.43059003   -2.70771503
 C         -0.78241003    0.27722299   -1.96180499
 C         -0.35468501   -1.01666605   -2.29487491
 C          0.49169400   -1.15222502   -3.38889790
 C          0.91649503   -0.02036300   -4.15546179
 C          0.50504303    1.24940097   -3.81963205
 C         -0.92609698    2.55849504   -2.09071708
 C         -1.61654305    2.11541200   -0.91977400
 H         -0.66305202   -1.89127600   -1.73344803
 H          1.58430696   -0.15786900   -4.99589491
 H          0.84680903    2.10343695   -4.39677715
 N         -1.58681202    0.68941599   -0.95293897
 H         -1.94356406    0.09214100   -0.19873300
 C         -0.90356499    4.00303698   -2.46515298
 H         -0.11864900    4.51936102   -1.89587104
 H         -0.67196202    4.13319588   -3.52928591
 C         -2.27223992    4.64087391   -2.09346509
 H         -2.20910192    5.72917795   -2.19351697
 H         -3.04108095    4.29480886   -2.79388809
 C         -2.87191796    2.89941597   -0.45407200
 N         -2.70269704    4.33369398   -0.73106402
 H         -1.99726498    4.68817282   -0.08235100
 H         -0.71297097    2.40025711    0.01693000
 C          3.16184497    0.34941000   -0.93013400
 C          2.96631098   -0.32381701    0.28523999
 C          4.34302282    0.17531700   -1.64779401
 H          2.38786602    1.00657594   -1.31185400
 N          1.77535200   -0.05056500    0.98469198
 C          3.97764301   -1.16117299    0.77352202
 C          5.34600306   -0.67324102   -1.17712104
 C          1.00719905   -0.86961502    1.78144097
 H          1.36634803    0.86532301    0.78538901
 C          5.14833879   -1.33401597    0.03388300
 H          3.85348392   -1.66320598    1.72181499
 H          6.26736689   -0.80149603   -1.73264694
 S          1.33928895   -2.49856496    2.10115910
 N         -0.06954100   -0.22184600    2.29123902
 H         -0.21315899    0.74727303    2.00469804
 C         -1.13250601   -0.84149498    3.07322311
 C         -2.12242794   -1.55660903    2.12645197
 H         -0.66901797   -1.55144298    3.76003790
 O         -2.58953595   -0.94511199    1.15202498
 O          0.16426700    2.46055603    1.02513897
 C          0.38751501    3.71118808    1.37885594
 O         -0.20168400    4.67382622    0.87821001
 C         -1.86934197    0.26205799    3.88365698
 H         -2.20500493    1.01450002    3.15550494
 C         -0.92424703    0.93156499    4.89250088
 H         -0.57842398    0.20732100    5.64080191
 H         -0.04273200    1.36682606    4.41365385
 H         -1.44674301    1.73560297    5.42250299
 C         -3.11659789   -0.27827701    4.59925985
 H         -3.61185098    0.53313100    5.14304209
 H         -3.84646010   -0.70085400    3.90157700
 H         -2.85189295   -1.04946601    5.33317089
 H         -2.95312810    2.81257701    0.63550901
 C         -4.18231583    2.38258600   -1.04615903
 C         -5.36934614    2.61838603   -0.33742201
 C         -4.26442623    1.73058701   -2.28172207
 C         -6.60640478    2.21959591   -0.83896500
 H         -5.32436609    3.12993693    0.62050498
 C         -5.49441814    1.32340801   -2.80419707
 H         -3.36283708    1.52542901   -2.85012507
 C         -6.64530802    1.57563901   -2.07086492
 H         -7.52762794    2.39753389   -0.29368600
 H         -5.56412983    0.81446898   -3.75998092
 O          0.88272798   -2.41965389   -3.67646289
 C          1.85708296   -2.63556600   -4.69650698
 H          2.06093693   -3.70708799   -4.68317509
 H          1.47344995   -2.35300803   -5.68427515
 H          2.77930188   -2.08350992   -4.48609495
 N         -2.50909805   -2.81711102    2.41434193
 C         -3.56258297   -3.47558188    1.61083806
 C         -2.04409790   -3.65790009    3.54067206
 C         -4.01006079   -4.62515593    2.54536510
 H         -4.37058687   -2.75571895    1.44980001
 C         -2.71670198   -5.01192999    3.27579093
 H         -0.95257902   -3.71638894    3.54629993
 H         -4.46027517   -5.45226192    1.99124801
 H         -2.08418012   -5.62587881    2.62574100
 H         -2.38231993   -3.23561001    4.49445009
 H         -2.89224696   -5.56908798    4.20014715
 H         -4.75154686   -4.24802685    3.26023793
 C         -3.08992505   -3.97190309    0.24803700
 C         -4.05721998   -4.28383493   -0.71777999
 C         -1.74033904   -4.17025518   -0.06340200
 C         -3.68787694   -4.79050589   -1.96329200
 H         -5.10999489   -4.12280703   -0.49375501
 C         -1.36782598   -4.67410612   -1.31365204
 H         -0.97181201   -3.91172290    0.65966702
 C         -2.33835292   -4.98813295   -2.26584792
 H         -4.45281601   -5.02215481   -2.69994307
 H         -0.31435701   -4.80962086   -1.54322004
 H         -2.04625607   -5.37528992   -3.23820901
 C          6.20337200   -2.28132796    0.54308802
 C          4.52866888    0.85741299   -2.97596788
 F          7.43935585   -1.93060303    0.12089300
 F          5.98739195   -3.54610896    0.11246000
 F          6.23436022   -2.32618999    1.89266503
 F          5.80268288    1.26983404   -3.15351605
 F          4.25135088    0.02105900   -4.01319218
 F          3.72856903    1.93453300   -3.11980200
 F         -7.84095001    1.17976606   -2.56607890
 C          1.41967201    3.94149590    2.44961905
 C          2.14343810    2.90078211    3.04764009
 C          1.65944898    5.26230383    2.85745811
 C          3.08898401    3.17654800    4.03600883
 H          1.97378898    1.87550104    2.74204612
 C          2.60340405    5.53736401    3.84406710
 H          1.09354806    6.05887318    2.38694501
 C          3.32091498    4.49413586    4.43601990
 H          3.64510107    2.36184692    4.49144793
 H          2.78063011    6.56424522    4.15198612
 H          4.05803919    4.70744181    5.20552301
