112
title
 C         -3.76309705   -3.18669510   -0.37588701
 C         -3.66848207   -1.75892997   -0.27946901
 C         -4.70820808   -0.91949397   -0.70697200
 C         -5.86262894   -1.52177000   -1.19373405
 C         -5.98876095   -2.94359303   -1.27293003
 C         -4.95411110   -3.76271200   -0.87542802
 C         -2.54048109   -3.71174407    0.08731600
 C         -1.67425096   -2.62008905    0.40370199
 H         -4.63417816    0.16010299   -0.64610702
 H         -6.90188599   -3.38451600   -1.65324998
 H         -5.05538797   -4.84173203   -0.94947398
 N         -2.46244001   -1.43464601    0.25044301
 H         -2.09140801   -0.48278499    0.18441400
 C         -2.12468410   -5.12891912    0.29538599
 H         -1.52556300   -5.46064615   -0.56226301
 H         -2.99559212   -5.79209805    0.36715299
 C         -1.23210394   -5.21669388    1.56375599
 H         -0.74933201   -6.19832182    1.60642898
 H         -1.85317397   -5.12401819    2.46180296
 C         -0.69277602   -2.81498408    1.60567701
 H          0.18065800   -2.16742396    1.45958805
 N         -0.18920299   -4.19194603    1.60092700
 H          0.40007699   -4.32057524    0.77627599
 H         -0.78568798   -2.54979706   -0.58603799
 C          4.47143078    0.65354699   -1.24086201
 C          3.43077803   -0.15827499   -0.76869798
 C          5.77233982    0.44389999   -0.78242701
 H          4.26616001    1.43201494   -1.96092105
 N          2.09853292   -0.06098400   -1.20806205
 C          3.72679901   -1.18722606    0.13855800
 C          6.07037306   -0.57253498    0.12406300
 C          1.36439800    1.02993500   -1.61297798
 H          1.55509996   -0.92185301   -1.11339402
 C          5.03420019   -1.39077795    0.57366800
 H          2.93257093   -1.83225095    0.50110501
 H          7.08757782   -0.73549300    0.45839599
 S          1.92277706    2.62868404   -1.62480998
 N          0.11356600    0.67836899   -1.99976695
 H         -0.13022000   -0.31132600   -1.94696605
 C         -0.94749200    1.60674500   -2.36456609
 C         -1.62749803    2.14410806   -1.08269501
 H         -0.49199599    2.42169809   -2.92937303
 O         -2.02844596    1.35119605   -0.21455400
 O          0.11917500   -2.25655007   -1.48946702
 C          0.68367302   -3.34801888   -1.98045003
 O          0.63235903   -4.44871092   -1.43661594
 C         -1.98091900    0.87103200   -3.26188707
 H         -2.35636091    0.01577800   -2.68309999
 C         -3.18244290    1.76381099   -3.60588908
 H         -2.87334108    2.63388395   -4.19829082
 H         -3.70451593    2.12360907   -2.71337390
 H         -3.90570593    1.19990301   -4.20421124
 C         -1.32247996    0.34684601   -4.54720116
 H         -2.05602908   -0.19906700   -5.15086079
 H         -0.48866799   -0.33008301   -4.33884001
 H         -0.93784797    1.17533803   -5.15497112
 C         -1.33598304   -2.45151901    2.96505404
 O         -6.84983301   -0.67064899   -1.58164704
 C         -8.07345200   -1.20044601   -2.08389807
 H         -8.58139706   -1.81933200   -1.33472598
 H         -8.69428158   -0.33403999   -2.31647801
 H         -7.91340923   -1.78697503   -2.99652791
 C          1.41158605   -3.13426805   -3.29747295
 H          1.91328800   -4.05393887   -3.60240293
 H          0.69330102   -2.83616304   -4.06954288
 H          2.14550900   -2.32627892   -3.20923400
 H         -2.38470292   -2.77573395    2.98378801
 H         -0.80700499   -3.03871989    3.72653508
 C         -1.25329697   -0.96548700    3.33888197
 C         -1.88854694   -0.66789001    4.70379019
 H         -1.74193394   -0.34941700    2.57345104
 H         -0.19767299   -0.65713298    3.35585499
 C         -1.78572702    0.80503899    5.11732292
 H         -2.94776392   -0.96592999    4.68295813
 H         -1.41163397   -1.29571402    5.47159576
 C         -2.42895508    1.09551895    6.47716522
 H         -0.72774702    1.10108101    5.14215088
 H         -2.25387096    1.43320298    4.34773922
 H         -2.34069991    2.15566802    6.74204683
 H         -3.49636197    0.84073901    6.47415876
 H         -1.95316803    0.51207298    7.27545023
 N         -1.80921304    3.47578311   -0.95493102
 C         -2.56427312    4.02557802    0.19153500
 C         -1.40477705    4.52484703   -1.92007506
 C         -2.99905205    5.40896702   -0.34726200
 H         -3.42617202    3.37757802    0.37593499
 C         -1.81117702    5.83100224   -1.22275305
 H         -0.33224100    4.46289921   -2.12212110
 H         -3.21695590    6.11431980    0.45819101
 H         -0.99072403    6.19440317   -0.59504002
 H         -1.95090604    4.40129519   -2.86234188
 H         -2.06058502    6.61666584   -1.94120002
 H         -3.90248799    5.29652977   -0.95916897
 C         -1.75442505    4.13053799    1.48134995
 C         -2.43941998    4.40001917    2.67550302
 C         -0.36089799    4.01907778    1.51612496
 C         -1.74765098    4.56911707    3.87438107
 H         -3.52494502    4.47972584    2.66575289
 C          0.33369499    4.18466806    2.71793103
 H          0.18896100    3.78835702    0.60823500
 C         -0.35395199    4.46410084    3.89875603
 H         -2.29593301    4.77962494    4.78906202
 H          1.41646194    4.09151077    2.72519207
 H          0.18807299    4.59428120    4.83159113
 C          6.86945581    1.36147106   -1.25625706
 C          5.32070780   -2.46409392    1.59041297
 F          8.07781410    0.75497800   -1.23253405
 F          6.96913815    2.46363902   -0.47735500
 F          6.65815020    1.79221499   -2.51932693
 F          6.56605577   -2.96946192    1.44771302
 F          5.23441792   -1.98827505    2.85512996
 F          4.45086288   -3.49313998    1.49826705
