113
title
 C         -4.55217314   -2.72172809   -0.28661799
 C         -4.28287077   -1.37301397    0.14859299
 C         -5.31080008   -0.43046799    0.29556599
 C         -6.60872078   -0.84784400    0.02962200
 C         -6.90317488   -2.19518590   -0.38110599
 C         -5.89684200   -3.11227107   -0.53839302
 C         -3.32980704   -3.37450910   -0.39945501
 C         -2.26068902   -2.45576906    0.05128700
 H         -5.11424112    0.58972597    0.60382098
 H         -7.92803383   -2.48548794   -0.57512802
 H         -6.12386608   -4.12380981   -0.86104399
 N         -2.96101403   -1.22830999    0.35268500
 H         -2.51400805   -0.30724499    0.35752699
 C         -3.03732204   -4.78725195   -0.68801802
 H         -2.34181690   -4.86517382   -1.53085995
 H         -3.94060493   -5.36841202   -0.90136498
 C         -2.26773810   -5.36946011    0.56260300
 H         -1.89933801   -6.36721516    0.30832401
 H         -2.96348596   -5.46530819    1.40414596
 C         -1.50372005   -3.18851089    1.32722199
 N         -1.16192305   -4.52787590    0.93525898
 H         -0.47834200   -4.49968815    0.16748101
 H         -1.43135500   -2.29465389   -0.65906399
 C          3.78560305   -1.18461394   -0.36566201
 C          3.44428992    0.04855900   -0.95157999
 C          5.07619381   -1.41753805    0.09762900
 H          3.02653599   -1.95321095   -0.26504800
 N          2.12021899    0.16518900   -1.39510500
 C          4.43775177    1.02993298   -1.08499205
 C          6.06261206   -0.43595499   -0.01176100
 C          1.31443799    1.25694597   -1.59169996
 H          1.61321700   -0.73717099   -1.44663298
 C          5.72571182    0.77764702   -0.60790902
 H          4.20224619    1.97459197   -1.55245399
 H          7.06564713   -0.61484700    0.35553199
 S          1.80707705    2.88073611   -1.53734195
 N          0.03257200    0.88691598   -1.84747601
 H         -0.16880099   -0.11484100   -1.82156098
 C         -1.06726098    1.78981698   -2.14930296
 C         -1.73087096    2.27700305   -0.83898598
 H         -0.65650898    2.63360906   -2.70637012
 O         -2.14520693    1.45334101   -0.00572000
 O          0.36103299   -1.99941194   -1.56177294
 C          0.56427801   -3.13877106   -2.12224293
 O          0.06900300   -4.22167015   -1.74088204
 C         -2.11300802    1.05354905   -3.03091598
 H         -2.47113991    0.19258700   -2.44924998
 C         -3.32276607    1.94940603   -3.33708501
 H         -3.02294898    2.83834004   -3.90621495
 H         -3.83472991    2.28068995   -2.42751598
 H         -4.05126905    1.40147603   -3.94429111
 C         -1.47985899    0.53911299   -4.33244514
 H         -2.23090696    0.01677000   -4.93576813
 H         -0.65854698   -0.15803000   -4.14321899
 H         -1.08677697    1.36967301   -4.93194818
 H         -2.25535107   -3.21986103    2.12690592
 O         -7.56761980    0.09054800    0.18032899
 C         -8.93794918   -0.23999301   -0.05606400
 H         -9.28136253   -1.02500796    0.62649900
 H         -9.49392319    0.67761302    0.13798200
 H         -9.09939575   -0.55119097   -1.09395599
 C          1.47182095   -3.17125106   -3.35745692
 H          1.95643997   -2.20968390   -3.54535699
 H          2.23174000   -3.95025301   -3.23906493
 H          0.87207597   -3.44074202   -4.23498011
 N         -1.88959205    3.60252309   -0.63863599
 C         -2.60782504    4.09247303    0.55809301
 C         -1.48801398    4.69984818   -1.54847801
 C         -2.96033406    5.54484510    0.15599200
 H         -3.51077509    3.48799896    0.68855500
 C         -1.78005803    5.96444511   -0.73050499
 H         -0.43475100    4.60024977   -1.82112896
 H         -3.10038090    6.18845797    1.02783203
 H         -0.91346103    6.21966791   -0.11119100
 H         -2.09793401    4.67555618   -2.45999193
 H         -2.00322795    6.82309103   -1.36981499
 H         -3.89080811    5.54833603   -0.42502999
 C         -1.79417598    4.01420116    1.84653604
 C         -2.47296405    4.11632013    3.06922293
 C         -0.40105999    3.88926506    1.85871696
 C         -1.77740204    4.10316992    4.27761793
 H         -3.55803299    4.20346498    3.07450509
 C          0.29782400    3.87486005    3.06952596
 H          0.14442900    3.78349209    0.92514402
 C         -0.38520801    3.98381591    4.28149509
 H         -2.32189298    4.18028879    5.21527290
 H          1.38005805    3.77613306    3.05925107
 H          0.16031501    3.97048306    5.22126198
 C          6.75816298    1.87101102   -0.69420201
 C          5.42362213   -2.76154304    0.67831099
 F          8.01591301    1.37503302   -0.74332201
 F          6.70568895    2.69399309    0.38032901
 F          6.58721304    2.64552808   -1.78764999
 F          5.87526417   -3.61684608   -0.26948699
 F          6.39320421   -2.67002702    1.61496603
 F          4.35478592   -3.35666394    1.25886595
 C         -0.23592301   -2.45297003    1.82441497
 C         -0.40675300   -0.94513100    2.08635211
 C          0.27876300   -3.15997791    3.10114288
 H          0.51867902   -2.56510997    1.03371406
 C          0.86981601   -0.30757901    2.66323805
 H         -1.24311495   -0.78173399    2.78244495
 H         -0.65150398   -0.41542199    1.16178894
 C          1.56111896   -2.52064610    3.65253401
 H         -0.50651401   -3.10758996    3.87231302
 H          0.43840301   -4.22147799    2.88972998
 C          1.36504996   -1.02405906    3.92484689
 H          0.68247300    0.75364101    2.86670089
 H          1.66077006   -0.34189299    1.89988399
 H          1.86696804   -3.04222488    4.56903410
 H          2.37844706   -2.65672207    2.92982197
 H          2.30031490   -0.57053798    4.27778387
 H          0.62841702   -0.89500099    4.73231697
