107
title
 C         -3.82249808   -2.49784589   -1.40936601
 C         -3.68931794   -1.15396798   -0.92017502
 C         -4.69128180   -0.19253300   -1.12140799
 C         -5.84553480   -0.59549201   -1.78213501
 C         -6.00932884   -1.93568003   -2.25625396
 C         -5.01344681   -2.86997199   -2.07709503
 C         -2.63169694   -3.17430210   -1.08233702
 C         -1.74305296   -2.23567510   -0.46753901
 H         -4.58697605    0.82529199   -0.76390803
 H         -6.92138290   -2.22001195   -2.76637602
 H         -5.14253092   -3.88194299   -2.45008707
 N         -2.49430299   -1.03138399   -0.29411799
 H         -2.10307002   -0.11585700   -0.05424800
 C         -2.24533105   -4.60288000   -1.27380800
 H         -1.66617095   -4.69678020   -2.20155001
 H         -3.13089490   -5.24271297   -1.37211299
 C         -1.34156001   -5.05525303   -0.09361900
 H         -0.87986898   -6.01835823   -0.33240700
 H         -1.95011103   -5.19974709    0.80591398
 C         -0.75763702   -2.77153397    0.61171103
 H          0.12447800   -2.12067389    0.62460500
 N         -0.27533901   -4.10199213    0.21331100
 H          0.30232400   -3.99656010   -0.62362301
 H         -0.86488199   -1.91651201   -1.39415896
 C          4.56409597    0.96319199   -0.92618197
 C          3.45274305    0.11530900   -0.81639200
 C          5.82473993    0.50060302   -0.54800999
 H          4.44360018    1.96621704   -1.30790806
 N          2.15061498    0.46402401   -1.21492302
 C          3.64096594   -1.19612205   -0.35272101
 C          6.01490021   -0.79836702   -0.07822200
 C          1.50751400    1.67986000   -1.23653603
 H          1.54636097   -0.33316001   -1.42918706
 C          4.90950680   -1.64416695    0.00771300
 H          2.79294896   -1.86996305   -0.28009400
 H          7.00194216   -1.14940906    0.19653800
 S          2.17076802    3.14318800   -0.70079499
 N          0.25085601    1.57377195   -1.73600900
 H         -0.06444800    0.64356798   -2.01313901
 C         -0.73232198    2.64833307   -1.78194499
 C         -1.45293796    2.74343705   -0.41721401
 H         -0.19763100    3.57296491   -2.00463390
 O         -1.97218001    1.72955799    0.07775300
 O          0.06135100   -1.38452697   -2.19241095
 C          0.59007299   -2.30077505   -2.98494101
 O          0.52292901   -3.51026893   -2.77293205
 C         -1.75671601    2.35849309   -2.91254592
 H         -2.21733689    1.38683903   -2.68519497
 C         -2.87608194    3.40971398   -2.94759297
 H         -2.47545600    4.40796900   -3.16370511
 H         -3.43046904    3.45889401   -2.00470710
 H         -3.59313989    3.16542506   -3.73839998
 C         -1.06245303    2.27055597   -4.27984905
 H         -1.79352200    2.02860308   -5.05930424
 H         -0.28338799    1.50262403   -4.29949999
 H         -0.59581399    3.22789001   -4.54331684
 C         -1.31852698   -2.79612088    2.03132391
 C         -2.68616104   -2.84843707    2.32113409
 C         -0.40889999   -2.80837107    3.09914804
 C         -3.14322901   -2.91234899    3.63981700
 H         -3.41434598   -2.83494997    1.51671898
 C         -0.84307802   -2.87109804    4.42104387
 H          0.65722799   -2.77612710    2.89107990
 C         -2.21084595   -2.92167091    4.66755581
 H         -4.20252705   -2.95032907    3.87188196
 H         -0.14417100   -2.87807894    5.25102901
 O         -6.79461622    0.36332801   -1.94197500
 C         -8.01803780    0.03873000   -2.59743190
 H         -8.56658745   -0.74359298   -2.05975795
 H         -8.60481167    0.95832199   -2.59319711
 H         -7.84758997   -0.27752599   -3.63331008
 C          1.30097198   -1.73679805   -4.20438385
 H          2.06617999   -1.01240003   -3.90538406
 H          1.76323295   -2.54247403   -4.77673483
 H          0.58088499   -1.20446801   -4.83583498
 N         -1.53942001    3.94103408    0.19808100
 C         -2.30602503    4.07470083    1.45696700
 C         -0.99774897    5.23409224   -0.27832100
 C         -2.53014302    5.60377789    1.54007304
 H         -3.25379992    3.54059505    1.33992696
 C         -1.26389802    6.18499994    0.89642203
 H          0.06428900    5.13758278   -0.51701403
 H         -3.41448593    5.87677193    0.95128697
 H         -1.38318801    7.22040987    0.56567502
 H         -1.53670800    5.56226683   -1.17557704
 H         -0.42924801    6.14989281    1.60470104
 H         -2.68825698    5.93868303    2.56802797
 C         -1.59152997    3.51079798    2.68141699
 C         -2.35042405    3.23946595    3.82868910
 C         -0.20987500    3.29588509    2.72251797
 C         -1.74344003    2.77354789    4.99425888
 H         -3.42825890    3.38958192    3.80682611
 C          0.39980000    2.82716393    3.88945103
 H          0.39490899    3.47280407    1.83758795
 C         -0.36189201    2.56743598    5.02894878
 H         -2.34930992    2.56402612    5.87200880
 H          1.47385204    2.66125298    3.90085506
 H          0.11358900    2.19980502    5.93432283
 C          6.99905396    1.44221902   -0.61754000
 C          5.07328081   -3.03674293    0.55705798
 F          8.16193390    0.78125203   -0.81640100
 F          7.14103508    2.14733696    0.52893001
 F          6.86896896    2.34120202   -1.61735594
 F          6.30622816   -3.53172207    0.31182501
 F          4.89888382   -3.06581998    1.89980996
 F          4.17624712   -3.89662600    0.02755300
 F         -2.64447689   -2.97867894    5.94787502
