114
title
 C         -3.19080710   -3.41298103    0.45352501
 C         -3.41986704   -2.12373400   -0.13889100
 C         -4.47792006   -1.89983296   -1.03339005
 C         -5.32549620   -2.96615505   -1.30711997
 C         -5.12673283   -4.25320578   -0.71392298
 C         -4.07564878   -4.47425222    0.14806999
 C         -2.04330993   -3.29580092    1.26130199
 C         -1.52243304   -1.97294903    1.09972894
 H         -4.65044594   -0.93036300   -1.48686302
 H         -5.80431700   -5.06511688   -0.94727898
 H         -3.92758608   -5.45751715    0.58514500
 N         -2.47467899   -1.26467395    0.30690300
 H         -2.34367704   -0.32502201   -0.08220200
 C         -1.39387405   -4.27657986    2.18074107
 H         -0.55708301   -4.76708412    1.66628206
 H         -2.09696293   -5.06372595    2.47980499
 C         -0.82756501   -3.51748896    3.41423702
 H         -0.18325099   -4.18676615    3.99294806
 H         -1.65152395   -3.21286798    4.06940699
 C         -0.79920602   -1.31424105    2.30968904
 H         -0.04996300   -0.61265099    1.92555594
 N         -0.04953900   -2.33387494    3.05609202
 H          0.73807502   -2.63063908    2.47586107
 H         -0.50766301   -2.13448191    0.26357001
 C          4.21058321    1.59671998   -0.56419301
 C          3.28735590    0.58607501   -0.25905800
 C          5.46338892    1.59644604    0.05108800
 H          3.95352006    2.36524796   -1.27770197
 N          2.01526308    0.44807401   -0.84146899
 C          3.65783000   -0.41528201    0.65640700
 C          5.83595324    0.60489702    0.95612103
 C          1.24435902    1.28711796   -1.60824502
 H          1.58194399   -0.45880899   -0.66016102
 C          4.91851091   -0.40517199    1.24556196
 H          2.96775293   -1.21843898    0.89589101
 H          6.81903410    0.60738301    1.40990496
 S          1.59155202    2.90808201   -1.95555604
 N          0.12691601    0.66250199   -2.06688690
 H         -0.01823400   -0.30698901   -1.79110003
 C         -0.93594998    1.28929400   -2.84451699
 C         -1.96872902    1.92480397   -1.88786197
 H         -0.47154400    2.04950905   -3.47362995
 O         -2.48753595    1.23618197   -0.99391103
 O          0.43379000   -2.11820102   -0.67150402
 C          1.37788999   -2.99821901   -0.40184900
 O          1.61713803   -3.42029500    0.73573899
 C         -1.61260402    0.22000100   -3.74447393
 H         -1.95565999   -0.58671099   -3.08084989
 C         -2.84466004    0.78017902   -4.47113514
 H         -2.57086301    1.60809696   -5.13693190
 H         -3.61029100    1.13731205   -3.77482510
 H         -3.29990411   -0.00069700   -5.08949709
 C         -0.61075902   -0.35691300   -4.75560999
 H         -1.07740295   -1.16113997   -5.33534384
 H          0.28074101   -0.76305199   -4.26846600
 H         -0.28128299    0.41633099   -5.46074486
 C         -1.72513497   -0.52318501    3.23071694
 C         -3.07887697   -0.83139002    3.40758395
 C         -1.18195498    0.53998899    3.96621799
 C         -3.87550998   -0.10522100    4.29576397
 H         -3.53077292   -1.64147997    2.84372902
 C         -1.95905602    1.27884603    4.85544109
 H         -0.13215600    0.79231298    3.84276891
 C         -3.29915404    0.94017798    5.00371981
 H         -4.92643404   -0.33671999    4.43522406
 H         -1.54521000    2.10621810    5.42228603
 O         -6.34328985   -2.70105195   -2.16734910
 C         -7.27146578   -3.73160696   -2.49626803
 H         -7.80618906   -4.08901882   -1.60835099
 H         -7.98267412   -3.27508211   -3.18600011
 H         -6.77667809   -4.57525778   -2.99180603
 N         -2.31817794    3.21567893   -2.06237197
 C         -3.35917497    3.82388902   -1.20381200
 C         -1.82726598    4.14465523   -3.10589504
 C         -3.76389694    5.07484007   -2.01999593
 H         -4.19077396    3.11805511   -1.11939502
 C         -2.45731306    5.48739576   -2.71168590
 H         -0.73483902    4.17107296   -3.11024499
 H         -4.51727819    4.79646301   -2.76706696
 H         -2.61292791    6.13595390   -3.57819009
 H         -2.18014002    3.82297397   -4.09349585
 H         -1.80624902    6.01517582   -2.00667810
 H         -4.18589211    5.85806608   -1.38569903
 C         -2.87620902    4.16196203    0.20330600
 C         -3.83437204    4.37098694    1.20509398
 C         -1.52325106    4.31786585    0.52346498
 C         -3.45243692    4.73624992    2.49532199
 H         -4.88973999    4.24012089    0.97349298
 C         -1.13858700    4.68298483    1.81638598
 H         -0.76135898    4.13504696   -0.22914600
 C         -2.09938097    4.89627790    2.80500603
 H         -4.20952320    4.88751316    3.26031399
 H         -0.08254800    4.79575920    2.04740810
 H         -1.79846096    5.17853594    3.81039596
 C          6.41643810    2.72500992   -0.24622300
 C          5.27109480   -1.47703600    2.24335504
 F          7.70568705    2.35397410   -0.07600600
 F          6.20352221    3.78446889    0.56988901
 F          6.28968906    3.17601895   -1.51304698
 F          6.60632277   -1.67181897    2.32057309
 F          4.84760809   -1.15996599    3.48912907
 F          4.70591211   -2.66493702    1.93031704
 F         -4.06531620    1.65470099    5.86063814
 C          2.19914198   -3.45117688   -1.57191503
 C          1.74034703   -3.30957890   -2.88858604
 C          3.44740605   -4.04396582   -1.33291399
 C          2.51916909   -3.75968790   -3.95411706
 H          0.76830798   -2.86254191   -3.06697893
 C          4.23055506   -4.47928095   -2.39996910
 H          3.79340291   -4.13849401   -0.30893099
 C          3.76636291   -4.34100914   -3.71130800
 H          2.15495992   -3.65649509   -4.97262478
 H          5.20220613   -4.92719984   -2.21086502
 H          4.37592793   -4.68537617   -4.54250288
