107
title
 C         -0.35462400   -2.85498595    1.03087497
 C         -0.64377302   -1.45474601    1.20103097
 C          0.00527600   -0.68313003    2.17602110
 C          0.93344301   -1.32242000    2.98940492
 C          1.22236097   -2.71774101    2.84869599
 C          0.59212399   -3.47091794    1.88524902
 C         -1.12462401   -3.30667901   -0.05577500
 C         -1.80068505   -2.17567205   -0.61449999
 H         -0.19177300    0.37520099    2.30376196
 H          1.95806098   -3.18351603    3.49137497
 H          0.83039498   -4.52454710    1.77422094
 N         -1.56356895   -1.08557904    0.27735999
 H         -1.82998705   -0.11908300    0.06444400
 C         -1.27869403   -4.66327620   -0.66011202
 H         -0.57218897   -4.77361202   -1.49466801
 H         -1.04168701   -5.44990778    0.06670700
 C         -2.72135401   -4.81399107   -1.21944106
 H         -2.78298402   -5.71731901   -1.83455801
 H         -3.42510891   -4.93876505   -0.38846800
 C         -3.16446996   -2.39366388   -1.31652105
 N         -3.15245295   -3.67815304   -2.03255010
 H         -2.51561189   -3.58303690   -2.82765794
 H         -0.99806100   -1.90465999   -1.60800302
 C          3.23550797   -1.15456605   -0.37585199
 C          3.10168791    0.12830600   -0.93096399
 C          4.45499706   -1.56842506    0.15429600
 H          2.38133788   -1.82321203   -0.35844001
 N          1.85644996    0.44871601   -1.49802494
 C          4.21377516    0.98051798   -0.95614898
 C          5.56119919   -0.71712101    0.14955600
 C          1.18733597    1.64857304   -1.55215299
 H          1.30276203   -0.36064699   -1.79790103
 C          5.42412996    0.55266303   -0.40823501
 H          4.13384295    1.95991194   -1.40483797
 H          6.51173306   -1.04326499    0.55455798
 S          1.76960003    3.11916590   -0.94358402
 N         -0.02143000    1.52318203   -2.15497994
 H         -0.31734300    0.57810599   -2.40397596
 C         -1.03072500    2.56864405   -2.25126910
 C         -1.84404004    2.61466098   -0.93842202
 H         -0.51249498    3.51285195   -2.42359900
 O         -2.32989311    1.56661904   -0.48352200
 O         -0.13909000   -1.40608096   -2.53363109
 C         -0.06462600   -2.14397311   -3.62305999
 O         -0.79597700   -3.10504889   -3.85877299
 C         -1.96475697    2.25760508   -3.45381808
 H         -2.36992908    1.24968100   -3.28404498
 C         -1.18047798    2.26326704   -4.77411413
 H         -0.78476298    3.26407409   -4.98772907
 H         -0.33538100    1.56862104   -4.75381804
 H         -1.83399796    1.97684097   -5.60547686
 C         -3.15262389    3.22795200   -3.53319693
 H         -3.79405189    2.96200490   -4.38015079
 H         -3.77134895    3.20178699   -2.63051605
 H         -2.81363511    4.25932884   -3.69080806
 H         -3.28521395   -1.62137306   -2.08487892
 C         -4.37263823   -2.29895902   -0.38634801
 C         -5.62282991   -2.01128793   -0.95367903
 C         -4.30481100   -2.52709007    0.99236000
 C         -6.77645779   -1.94975495   -0.17549400
 H         -5.69353580   -1.84109795   -2.02474093
 C         -5.44961596   -2.47157407    1.79163003
 H         -3.35112309   -2.74550200    1.46212006
 C         -6.66682911   -2.18246508    1.19137394
 H         -7.74590302   -1.72558296   -0.60857701
 H         -5.40314293   -2.64465308    2.86181998
 C          1.03110194   -1.72429502   -4.59124994
 H          0.93800700   -0.66249001   -4.84230089
 H          2.01270604   -1.86177099   -4.12349319
 H          0.97847497   -2.32416296   -5.50112581
 O          1.54049504   -0.53961003    3.91628194
 C          2.61006904   -1.07737005    4.69360924
 H          2.97877002   -0.24639501    5.29641390
 H          2.26134205   -1.87796700    5.35689688
 H          3.41496110   -1.45164502    4.05221510
 N         -2.05178094    3.80590606   -0.33890700
 C         -2.92605996    3.89956999    0.85043901
 C         -1.55526495    5.12767076   -0.78538901
 C         -3.27416706    5.40719795    0.87729800
 H         -3.81504893    3.28775191    0.67156702
 C         -2.00163603    6.07467699    0.33741999
 H         -0.47033399    5.10240984   -0.91742200
 H         -3.55162001    5.74647808    1.87821901
 H         -1.23647106    6.11867619    1.11974704
 H         -2.02222705    5.40569878   -1.73768198
 H         -2.16911006    7.09151602   -0.02810400
 H         -4.11868286    5.59905577    0.20422700
 C         -2.27030802    3.42185092    2.14210701
 C         -3.09484696    3.10872793    3.23200488
 C         -0.88275200    3.33106899    2.30033898
 C         -2.54828191    2.72277904    4.45545292
 H         -4.17591715    3.16284609    3.11912107
 C         -0.33302799    2.94171906    3.52582407
 H         -0.22463600    3.54201102    1.46196306
 C         -1.16197002    2.63891292    4.60695982
 H         -3.20462489    2.47959089    5.28700686
 H          0.74616897    2.86641693    3.62822700
 H         -0.73244500    2.33128309    5.55640984
 C          6.59564877    1.49992394   -0.39206100
 C          4.58077478   -2.92439508    0.79369301
 F          7.77597094    0.83961600   -0.40776399
 F          6.59564018    2.27387810    0.71829897
 F          6.58560991    2.33559990   -1.45292103
 F          5.77395201   -3.49729609    0.52261299
 F          4.49311304   -2.85179400    2.14959502
 F          3.61815810   -3.77860808    0.38662300
 F         -7.78037596   -2.12104797    1.95790195
